<?xml version="1.0" encoding="utf-8"?>
<tlLogics version="1.1" xmlns:xsi="http://www.w3.org/2001/XMLSchema-instance" xsi:noNamespaceSchemaLocation="http://sumo.dlr.de/xsd/tllogic_file.xsd">
	<tlLogic id="A0" type="static" programID="0" offset="0">
		<phase duration="3" state="rrrrrrrrrrrrrrrrrrrrrrrrrrryyyyyyyyyrrrrrrrrrrrrrrrrrrrrrrrrrrrrrrrrrrrrrrrrrrrrryyyyyyyyyrrrrrrrrrrrrrrrrrr"/>
		<phase duration="5" state="rrrrrrrrrrrrrrrrrrrrrrrrrrrrrrrrrrrrrrrrrrrrrrrrrrrrrrrrrrrrrrrrrrrrrrrrrrrrrrrrrrrrrrrrrrrrrrrrrrrrrrrrrrrr"/>
		<phase duration="10" state="GGGGGGGGGrrrrrrrrrGGGGGGGGGGGGGGGGGGrrrrrrrrrrrrrrrrrrGGGGGGGGGrrrrrrrrrGGGGGGGGGGGGGGGGGGrrrrrrrrrrrrrrrrrr"/>
		<phase duration="5" state="rrrrrrrrrrrrrrrrrrrrrrrrrrrsssssssssrrrrrrrrrrrrrrrrrrrrrrrrrrrrrrrrrrrrrrrrrrrrrsssssssssrrrrrrrrrrrrrrrrrr"/>
		<phase duration="3" state="yyyyyyyyyrrrrrrrrryyyyyyyyyyyyyyyyyyrrrrrrrrrrrrrrrrrryyyyyyyyyrrrrrrrrrrrrrrrrrryyyyyyyyyrrrrrrrrrrrrrrrrrr"/>
		<phase duration="5" state="rrrrrrrrrrrrrrrrrrrrrrrrrrrsssssssssrrrrrrrrrrrrrrrrrrrrrrrrrrrrrrrrrrrrrrrrrrrrrsssssssssrrrrrrrrrrrrrrrrrr"/>
		<phase duration="10" state="GGGGGGGGGGGGGGGGGGGGGGGGGGGGGGGGGGGGrrrrrrrrrrrrrrrrrrGGGGGGGGGrrrrrrrrrrrrrrrrrrGGGGGGGGGrrrrrrrrrrrrrrrrrr"/>
		<phase duration="5" state="sssssssssrrrrrrrrrssssssssssssssssssrrrrrrrrrrrrrrrrrrsssssssssrrrrrrrrrrrrrrrrrrsssssssssrrrrrrrrrrrrrrrrrr"/>
		<phase duration="3" state="rrrrrrrrrrrrrrrrrrrrrrrrrrryyyyyyyyyrrrrrrrrrrrrrrrrrryyyyyyyyyrrrrrrrrrrrrrrrrrryyyyyyyyyrrrrrrrrrrrrrrrrrr"/>
		<phase duration="5" state="sssssssssrrrrrrrrrssssssssssssssssssrrrrrrrrrrrrrrrrrrsssssssssrrrrrrrrrrrrrrrrrrsssssssssrrrrrrrrrrrrrrrrrr"/>
		<phase duration="10" state="GGGGGGGGGrrrrrrrrrrrrrrrrrrGGGGGGGGGrrrrrrrrrrrrrrrrrrGGGGGGGGGGGGGGGGGGGGGGGGGGGGGGGGGGGGrrrrrrrrrrrrrrrrrr"/>
		<phase duration="5" state="sssssssssrrrrrrrrrssssssssssssssssssrrrrrrrrrrrrrrrrrrsssssssssrrrrrrrrrrrrrrrrrrsssssssssrrrrrrrrrrrrrrrrrr"/>
		<phase duration="3" state="yyyyyyyyyrrrrrrrrrrrrrrrrrryyyyyyyyyrrrrrrrrrrrrrrrrrrrrrrrrrrrrrrrrrrrrrrrrrrrrryyyyyyyyyrrrrrrrrrrrrrrrrrr"/>
		<phase duration="5" state="sssssssssrrrrrrrrrssssssssssssssssssrrrrrrrrrrrrrrrrrrsssssssssrrrrrrrrrrrrrrrrrrsssssssssrrrrrrrrrrrrrrrrrr"/>
		<phase duration="10" state="GGGGGGGGGrrrrrrrrrrrrrrrrrrGGGGGGGGGGGGGGGGGGrrrrrrrrrGGGGGGGGGrrrrrrrrrrrrrrrrrrGGGGGGGGGGGGGGGGGGrrrrrrrrr"/>
		<phase duration="5" state="sssssssssrrrrrrrrrssssssssssssssssssrrrrrrrrrrrrrrrrrrsssssssssrrrrrrrrrrrrrrrrrrsssssssssrrrrrrrrrrrrrrrrrr"/>
		<phase duration="3" state="yyyyyyyyyrrrrrrrrrrrrrrrrrrrrrrrrrrrrrrrrrrrrrrrrrrrrryyyyyyyyyrrrrrrrrrrrrrrrrrrrrrrrrrrrrrrrrrrrrrrrrrrrrr"/>
		<phase duration="5" state="sssssssssrrrrrrrrrssssssssssssssssssrrrrrrrrrrrrrrrrrrsssssssssrrrrrrrrrrrrrrrrrrsssssssssrrrrrrrrrrrrrrrrrr"/>
		<phase duration="10" state="GGGGGGGGGrrrrrrrrrrrrrrrrrrGGGGGGGGGrrrrrrrrrGGGGGGGGGGGGGGGGGGrrrrrrrrrrrrrrrrrrGGGGGGGGGrrrrrrrrrGGGGGGGGG"/>
		<phase duration="5" state="sssssssssrrrrrrrrrssssssssssssssssssrrrrrrrrrrrrrrrrrrsssssssssrrrrrrrrrrrrrrrrrrsssssssssrrrrrrrrrrrrrrrrrr"/>
		<phase duration="3" state="yyyyyyyyyrrrrrrrrrrrrrrrrrryyyyyyyyyrrrrrrrrrrrrrrrrrryyyyyyyyyrrrrrrrrrrrrrrrrrryyyyyyyyyrrrrrrrrryyyyyyyyy"/>
		<phase duration="5" state="sssssssssrrrrrrrrrssssssssssssssssssrrrrrrrrrrrrrrrrrrsssssssssrrrrrrrrrrrrrrrrrrsssssssssrrrrrrrrrrrrrrrrrr"/>
		<phase duration="10" state="GGGGGGGGGrrrrrrrrrrrrrrrrrrGGGGGGGGGrrrrrrrrrrrrrrrrrrGGGGGGGGGrrrrrrrrrrrrrrrrrrGGGGGGGGGGGGGGGGGGGGGGGGGGG"/>
		<phase duration="5" state="sssssssssrrrrrrrrrssssssssssssssssssrrrrrrrrrrrrrrrrrrsssssssssrrrrrrrrrrrrrrrrrrsssssssssrrrrrrrrrsssssssss"/>
		<phase duration="3" state="yyyyyyyyyrrrrrrrrrrrrrrrrrryyyyyyyyyrrrrrrrrrrrrrrrrrryyyyyyyyyrrrrrrrrrrrrrrrrrrrrrrrrrrrrrrrrrrrrrrrrrrrrr"/>
		<phase duration="5" state="sssssssssrrrrrrrrrssssssssssssssssssrrrrrrrrrrrrrrrrrrsssssssssrrrrrrrrrrrrrrrrrrsssssssssrrrrrrrrrsssssssss"/>
		<phase duration="10" state="GGGGGGGGGrrrrrrrrrrrrrrrrrrGGGGGGGGGGGGGGGGGGGGGGGGGGGGGGGGGGGGrrrrrrrrrrrrrrrrrrGGGGGGGGGrrrrrrrrrrrrrrrrrr"/>
		<phase duration="5" state="sssssssssrrrrrrrrrssssssssssssssssssrrrrrrrrrrrrrrrrrrsssssssssrrrrrrrrrrrrrrrrrrsssssssssrrrrrrrrrsssssssss"/>
		<phase duration="3" state="yyyyyyyyyrrrrrrrrrrrrrrrrrrrrrrrrrrrrrrrrrrrrrrrrrrrrryyyyyyyyyrrrrrrrrrrrrrrrrrryyyyyyyyyrrrrrrrrrrrrrrrrrr"/>
		<phase duration="5" state="sssssssssrrrrrrrrrssssssssssssssssssrrrrrrrrrrrrrrrrrrsssssssssrrrrrrrrrrrrrrrrrrsssssssssrrrrrrrrrsssssssss"/>
	</tlLogic>
	<tlLogic id="A0" type="static" programID="0" offset="0">
		<phase duration="3" state="rrrrrrrrrrrrrrrrrrrrrrrrrrryyyyyyyyyrrrrrrrrrrrrrrrrrrrrrrrrrrrrrrrrrrrrrrrrrrrrryyyyyyyyyrrrrrrrrrrrrrrrrrr"/>
		<phase duration="5" state="rrrrrrrrrrrrrrrrrrrrrrrrrrrrrrrrrrrrrrrrrrrrrrrrrrrrrrrrrrrrrrrrrrrrrrrrrrrrrrrrrrrrrrrrrrrrrrrrrrrrrrrrrrrr"/>
		<phase duration="10" state="GGGGGGGGGrrrrrrrrrGGGGGGGGGGGGGGGGGGrrrrrrrrrrrrrrrrrrGGGGGGGGGrrrrrrrrrGGGGGGGGGGGGGGGGGGrrrrrrrrrrrrrrrrrr"/>
		<phase duration="5" state="rrrrrrrrrrrrrrrrrrrrrrrrrrrsssssssssrrrrrrrrrrrrrrrrrrrrrrrrrrrrrrrrrrrrrrrrrrrrrsssssssssrrrrrrrrrrrrrrrrrr"/>
		<phase duration="3" state="yyyyyyyyyrrrrrrrrryyyyyyyyyyyyyyyyyyrrrrrrrrrrrrrrrrrryyyyyyyyyrrrrrrrrrrrrrrrrrryyyyyyyyyrrrrrrrrrrrrrrrrrr"/>
		<phase duration="5" state="rrrrrrrrrrrrrrrrrrrrrrrrrrrsssssssssrrrrrrrrrrrrrrrrrrrrrrrrrrrrrrrrrrrrrrrrrrrrrsssssssssrrrrrrrrrrrrrrrrrr"/>
		<phase duration="10" state="GGGGGGGGGGGGGGGGGGGGGGGGGGGGGGGGGGGGrrrrrrrrrrrrrrrrrrGGGGGGGGGrrrrrrrrrrrrrrrrrrGGGGGGGGGrrrrrrrrrrrrrrrrrr"/>
		<phase duration="5" state="sssssssssrrrrrrrrrssssssssssssssssssrrrrrrrrrrrrrrrrrrsssssssssrrrrrrrrrrrrrrrrrrsssssssssrrrrrrrrrrrrrrrrrr"/>
		<phase duration="3" state="rrrrrrrrrrrrrrrrrrrrrrrrrrryyyyyyyyyrrrrrrrrrrrrrrrrrryyyyyyyyyrrrrrrrrrrrrrrrrrryyyyyyyyyrrrrrrrrrrrrrrrrrr"/>
		<phase duration="5" state="sssssssssrrrrrrrrrssssssssssssssssssrrrrrrrrrrrrrrrrrrsssssssssrrrrrrrrrrrrrrrrrrsssssssssrrrrrrrrrrrrrrrrrr"/>
		<phase duration="10" state="GGGGGGGGGrrrrrrrrrrrrrrrrrrGGGGGGGGGrrrrrrrrrrrrrrrrrrGGGGGGGGGGGGGGGGGGGGGGGGGGGGGGGGGGGGrrrrrrrrrrrrrrrrrr"/>
		<phase duration="5" state="sssssssssrrrrrrrrrssssssssssssssssssrrrrrrrrrrrrrrrrrrsssssssssrrrrrrrrrrrrrrrrrrsssssssssrrrrrrrrrrrrrrrrrr"/>
		<phase duration="3" state="yyyyyyyyyrrrrrrrrrrrrrrrrrryyyyyyyyyrrrrrrrrrrrrrrrrrrrrrrrrrrrrrrrrrrrrrrrrrrrrryyyyyyyyyrrrrrrrrrrrrrrrrrr"/>
		<phase duration="5" state="sssssssssrrrrrrrrrssssssssssssssssssrrrrrrrrrrrrrrrrrrsssssssssrrrrrrrrrrrrrrrrrrsssssssssrrrrrrrrrrrrrrrrrr"/>
		<phase duration="10" state="GGGGGGGGGrrrrrrrrrrrrrrrrrrGGGGGGGGGGGGGGGGGGrrrrrrrrrGGGGGGGGGrrrrrrrrrrrrrrrrrrGGGGGGGGGGGGGGGGGGrrrrrrrrr"/>
		<phase duration="5" state="sssssssssrrrrrrrrrssssssssssssssssssrrrrrrrrrrrrrrrrrrsssssssssrrrrrrrrrrrrrrrrrrsssssssssrrrrrrrrrrrrrrrrrr"/>
		<phase duration="3" state="yyyyyyyyyrrrrrrrrrrrrrrrrrrrrrrrrrrrrrrrrrrrrrrrrrrrrryyyyyyyyyrrrrrrrrrrrrrrrrrrrrrrrrrrrrrrrrrrrrrrrrrrrrr"/>
		<phase duration="5" state="sssssssssrrrrrrrrrssssssssssssssssssrrrrrrrrrrrrrrrrrrsssssssssrrrrrrrrrrrrrrrrrrsssssssssrrrrrrrrrrrrrrrrrr"/>
		<phase duration="10" state="GGGGGGGGGrrrrrrrrrrrrrrrrrrGGGGGGGGGrrrrrrrrrGGGGGGGGGGGGGGGGGGrrrrrrrrrrrrrrrrrrGGGGGGGGGrrrrrrrrrGGGGGGGGG"/>
		<phase duration="5" state="sssssssssrrrrrrrrrssssssssssssssssssrrrrrrrrrrrrrrrrrrsssssssssrrrrrrrrrrrrrrrrrrsssssssssrrrrrrrrrrrrrrrrrr"/>
		<phase duration="3" state="yyyyyyyyyrrrrrrrrrrrrrrrrrryyyyyyyyyrrrrrrrrrrrrrrrrrryyyyyyyyyrrrrrrrrrrrrrrrrrryyyyyyyyyrrrrrrrrryyyyyyyyy"/>
		<phase duration="5" state="sssssssssrrrrrrrrrssssssssssssssssssrrrrrrrrrrrrrrrrrrsssssssssrrrrrrrrrrrrrrrrrrsssssssssrrrrrrrrrrrrrrrrrr"/>
		<phase duration="10" state="GGGGGGGGGrrrrrrrrrrrrrrrrrrGGGGGGGGGrrrrrrrrrrrrrrrrrrGGGGGGGGGrrrrrrrrrrrrrrrrrrGGGGGGGGGGGGGGGGGGGGGGGGGGG"/>
		<phase duration="5" state="sssssssssrrrrrrrrrssssssssssssssssssrrrrrrrrrrrrrrrrrrsssssssssrrrrrrrrrrrrrrrrrrsssssssssrrrrrrrrrsssssssss"/>
		<phase duration="3" state="yyyyyyyyyrrrrrrrrrrrrrrrrrryyyyyyyyyrrrrrrrrrrrrrrrrrryyyyyyyyyrrrrrrrrrrrrrrrrrrrrrrrrrrrrrrrrrrrrrrrrrrrrr"/>
		<phase duration="5" state="sssssssssrrrrrrrrrssssssssssssssssssrrrrrrrrrrrrrrrrrrsssssssssrrrrrrrrrrrrrrrrrrsssssssssrrrrrrrrrsssssssss"/>
		<phase duration="10" state="GGGGGGGGGrrrrrrrrrrrrrrrrrrGGGGGGGGGGGGGGGGGGGGGGGGGGGGGGGGGGGGrrrrrrrrrrrrrrrrrrGGGGGGGGGrrrrrrrrrrrrrrrrrr"/>
		<phase duration="5" state="sssssssssrrrrrrrrrssssssssssssssssssrrrrrrrrrrrrrrrrrrsssssssssrrrrrrrrrrrrrrrrrrsssssssssrrrrrrrrrsssssssss"/>
		<phase duration="3" state="yyyyyyyyyrrrrrrrrrrrrrrrrrrrrrrrrrrrrrrrrrrrrrrrrrrrrryyyyyyyyyrrrrrrrrrrrrrrrrrryyyyyyyyyrrrrrrrrrrrrrrrrrr"/>
		<phase duration="5" state="sssssssssrrrrrrrrrssssssssssssssssssrrrrrrrrrrrrrrrrrrsssssssssrrrrrrrrrrrrrrrrrrsssssssssrrrrrrrrrsssssssss"/>
	</tlLogic>
	<tlLogic id="A0" type="static" programID="0" offset="0">
		<phase duration="3" state="rrrrrrrrrrrrrrrrrrrrrrrrrrryyyyyyyyyrrrrrrrrrrrrrrrrrrrrrrrrrrrrrrrrrrrrrrrrrrrrryyyyyyyyyrrrrrrrrrrrrrrrrrr"/>
		<phase duration="5" state="rrrrrrrrrrrrrrrrrrrrrrrrrrrrrrrrrrrrrrrrrrrrrrrrrrrrrrrrrrrrrrrrrrrrrrrrrrrrrrrrrrrrrrrrrrrrrrrrrrrrrrrrrrrr"/>
		<phase duration="10" state="GGGGGGGGGrrrrrrrrrGGGGGGGGGGGGGGGGGGrrrrrrrrrrrrrrrrrrGGGGGGGGGrrrrrrrrrGGGGGGGGGGGGGGGGGGrrrrrrrrrrrrrrrrrr"/>
		<phase duration="5" state="rrrrrrrrrrrrrrrrrrrrrrrrrrrsssssssssrrrrrrrrrrrrrrrrrrrrrrrrrrrrrrrrrrrrrrrrrrrrrsssssssssrrrrrrrrrrrrrrrrrr"/>
		<phase duration="3" state="yyyyyyyyyrrrrrrrrryyyyyyyyyyyyyyyyyyrrrrrrrrrrrrrrrrrryyyyyyyyyrrrrrrrrrrrrrrrrrryyyyyyyyyrrrrrrrrrrrrrrrrrr"/>
		<phase duration="5" state="rrrrrrrrrrrrrrrrrrrrrrrrrrrsssssssssrrrrrrrrrrrrrrrrrrrrrrrrrrrrrrrrrrrrrrrrrrrrrsssssssssrrrrrrrrrrrrrrrrrr"/>
		<phase duration="10" state="GGGGGGGGGGGGGGGGGGGGGGGGGGGGGGGGGGGGrrrrrrrrrrrrrrrrrrGGGGGGGGGrrrrrrrrrrrrrrrrrrGGGGGGGGGrrrrrrrrrrrrrrrrrr"/>
		<phase duration="5" state="sssssssssrrrrrrrrrssssssssssssssssssrrrrrrrrrrrrrrrrrrsssssssssrrrrrrrrrrrrrrrrrrsssssssssrrrrrrrrrrrrrrrrrr"/>
		<phase duration="3" state="rrrrrrrrrrrrrrrrrrrrrrrrrrryyyyyyyyyrrrrrrrrrrrrrrrrrryyyyyyyyyrrrrrrrrrrrrrrrrrryyyyyyyyyrrrrrrrrrrrrrrrrrr"/>
		<phase duration="5" state="sssssssssrrrrrrrrrssssssssssssssssssrrrrrrrrrrrrrrrrrrsssssssssrrrrrrrrrrrrrrrrrrsssssssssrrrrrrrrrrrrrrrrrr"/>
		<phase duration="10" state="GGGGGGGGGrrrrrrrrrrrrrrrrrrGGGGGGGGGrrrrrrrrrrrrrrrrrrGGGGGGGGGGGGGGGGGGGGGGGGGGGGGGGGGGGGrrrrrrrrrrrrrrrrrr"/>
		<phase duration="5" state="sssssssssrrrrrrrrrssssssssssssssssssrrrrrrrrrrrrrrrrrrsssssssssrrrrrrrrrrrrrrrrrrsssssssssrrrrrrrrrrrrrrrrrr"/>
		<phase duration="3" state="yyyyyyyyyrrrrrrrrrrrrrrrrrryyyyyyyyyrrrrrrrrrrrrrrrrrrrrrrrrrrrrrrrrrrrrrrrrrrrrryyyyyyyyyrrrrrrrrrrrrrrrrrr"/>
		<phase duration="5" state="sssssssssrrrrrrrrrssssssssssssssssssrrrrrrrrrrrrrrrrrrsssssssssrrrrrrrrrrrrrrrrrrsssssssssrrrrrrrrrrrrrrrrrr"/>
		<phase duration="10" state="GGGGGGGGGrrrrrrrrrrrrrrrrrrGGGGGGGGGGGGGGGGGGrrrrrrrrrGGGGGGGGGrrrrrrrrrrrrrrrrrrGGGGGGGGGGGGGGGGGGrrrrrrrrr"/>
		<phase duration="5" state="sssssssssrrrrrrrrrssssssssssssssssssrrrrrrrrrrrrrrrrrrsssssssssrrrrrrrrrrrrrrrrrrsssssssssrrrrrrrrrrrrrrrrrr"/>
		<phase duration="3" state="yyyyyyyyyrrrrrrrrrrrrrrrrrrrrrrrrrrrrrrrrrrrrrrrrrrrrryyyyyyyyyrrrrrrrrrrrrrrrrrrrrrrrrrrrrrrrrrrrrrrrrrrrrr"/>
		<phase duration="5" state="sssssssssrrrrrrrrrssssssssssssssssssrrrrrrrrrrrrrrrrrrsssssssssrrrrrrrrrrrrrrrrrrsssssssssrrrrrrrrrrrrrrrrrr"/>
		<phase duration="10" state="GGGGGGGGGrrrrrrrrrrrrrrrrrrGGGGGGGGGrrrrrrrrrGGGGGGGGGGGGGGGGGGrrrrrrrrrrrrrrrrrrGGGGGGGGGrrrrrrrrrGGGGGGGGG"/>
		<phase duration="5" state="sssssssssrrrrrrrrrssssssssssssssssssrrrrrrrrrrrrrrrrrrsssssssssrrrrrrrrrrrrrrrrrrsssssssssrrrrrrrrrrrrrrrrrr"/>
		<phase duration="3" state="yyyyyyyyyrrrrrrrrrrrrrrrrrryyyyyyyyyrrrrrrrrrrrrrrrrrryyyyyyyyyrrrrrrrrrrrrrrrrrryyyyyyyyyrrrrrrrrryyyyyyyyy"/>
		<phase duration="5" state="sssssssssrrrrrrrrrssssssssssssssssssrrrrrrrrrrrrrrrrrrsssssssssrrrrrrrrrrrrrrrrrrsssssssssrrrrrrrrrrrrrrrrrr"/>
		<phase duration="10" state="GGGGGGGGGrrrrrrrrrrrrrrrrrrGGGGGGGGGrrrrrrrrrrrrrrrrrrGGGGGGGGGrrrrrrrrrrrrrrrrrrGGGGGGGGGGGGGGGGGGGGGGGGGGG"/>
		<phase duration="5" state="sssssssssrrrrrrrrrssssssssssssssssssrrrrrrrrrrrrrrrrrrsssssssssrrrrrrrrrrrrrrrrrrsssssssssrrrrrrrrrsssssssss"/>
		<phase duration="3" state="yyyyyyyyyrrrrrrrrrrrrrrrrrryyyyyyyyyrrrrrrrrrrrrrrrrrryyyyyyyyyrrrrrrrrrrrrrrrrrrrrrrrrrrrrrrrrrrrrrrrrrrrrr"/>
		<phase duration="5" state="sssssssssrrrrrrrrrssssssssssssssssssrrrrrrrrrrrrrrrrrrsssssssssrrrrrrrrrrrrrrrrrrsssssssssrrrrrrrrrsssssssss"/>
		<phase duration="10" state="GGGGGGGGGrrrrrrrrrrrrrrrrrrGGGGGGGGGGGGGGGGGGGGGGGGGGGGGGGGGGGGrrrrrrrrrrrrrrrrrrGGGGGGGGGrrrrrrrrrrrrrrrrrr"/>
		<phase duration="5" state="sssssssssrrrrrrrrrssssssssssssssssssrrrrrrrrrrrrrrrrrrsssssssssrrrrrrrrrrrrrrrrrrsssssssssrrrrrrrrrsssssssss"/>
		<phase duration="3" state="yyyyyyyyyrrrrrrrrrrrrrrrrrrrrrrrrrrrrrrrrrrrrrrrrrrrrryyyyyyyyyrrrrrrrrrrrrrrrrrryyyyyyyyyrrrrrrrrrrrrrrrrrr"/>
		<phase duration="5" state="sssssssssrrrrrrrrrssssssssssssssssssrrrrrrrrrrrrrrrrrrsssssssssrrrrrrrrrrrrrrrrrrsssssssssrrrrrrrrrsssssssss"/>
	</tlLogic>
	<tlLogic id="A0" type="static" programID="0" offset="0">
		<phase duration="3" state="rrrrrrrrrrrrrrrrrrrrrrrrrrryyyyyyyyyrrrrrrrrrrrrrrrrrrrrrrrrrrrrrrrrrrrrrrrrrrrrryyyyyyyyyrrrrrrrrrrrrrrrrrr"/>
		<phase duration="5" state="rrrrrrrrrrrrrrrrrrrrrrrrrrrrrrrrrrrrrrrrrrrrrrrrrrrrrrrrrrrrrrrrrrrrrrrrrrrrrrrrrrrrrrrrrrrrrrrrrrrrrrrrrrrr"/>
		<phase duration="10" state="GGGGGGGGGrrrrrrrrrGGGGGGGGGGGGGGGGGGrrrrrrrrrrrrrrrrrrGGGGGGGGGrrrrrrrrrGGGGGGGGGGGGGGGGGGrrrrrrrrrrrrrrrrrr"/>
		<phase duration="5" state="rrrrrrrrrrrrrrrrrrrrrrrrrrrsssssssssrrrrrrrrrrrrrrrrrrrrrrrrrrrrrrrrrrrrrrrrrrrrrsssssssssrrrrrrrrrrrrrrrrrr"/>
		<phase duration="3" state="yyyyyyyyyrrrrrrrrryyyyyyyyyyyyyyyyyyrrrrrrrrrrrrrrrrrryyyyyyyyyrrrrrrrrrrrrrrrrrryyyyyyyyyrrrrrrrrrrrrrrrrrr"/>
		<phase duration="5" state="rrrrrrrrrrrrrrrrrrrrrrrrrrrsssssssssrrrrrrrrrrrrrrrrrrrrrrrrrrrrrrrrrrrrrrrrrrrrrsssssssssrrrrrrrrrrrrrrrrrr"/>
		<phase duration="10" state="GGGGGGGGGGGGGGGGGGGGGGGGGGGGGGGGGGGGrrrrrrrrrrrrrrrrrrGGGGGGGGGrrrrrrrrrrrrrrrrrrGGGGGGGGGrrrrrrrrrrrrrrrrrr"/>
		<phase duration="5" state="sssssssssrrrrrrrrrssssssssssssssssssrrrrrrrrrrrrrrrrrrsssssssssrrrrrrrrrrrrrrrrrrsssssssssrrrrrrrrrrrrrrrrrr"/>
		<phase duration="3" state="rrrrrrrrrrrrrrrrrrrrrrrrrrryyyyyyyyyrrrrrrrrrrrrrrrrrryyyyyyyyyrrrrrrrrrrrrrrrrrryyyyyyyyyrrrrrrrrrrrrrrrrrr"/>
		<phase duration="5" state="sssssssssrrrrrrrrrssssssssssssssssssrrrrrrrrrrrrrrrrrrsssssssssrrrrrrrrrrrrrrrrrrsssssssssrrrrrrrrrrrrrrrrrr"/>
		<phase duration="10" state="GGGGGGGGGrrrrrrrrrrrrrrrrrrGGGGGGGGGrrrrrrrrrrrrrrrrrrGGGGGGGGGGGGGGGGGGGGGGGGGGGGGGGGGGGGrrrrrrrrrrrrrrrrrr"/>
		<phase duration="5" state="sssssssssrrrrrrrrrssssssssssssssssssrrrrrrrrrrrrrrrrrrsssssssssrrrrrrrrrrrrrrrrrrsssssssssrrrrrrrrrrrrrrrrrr"/>
		<phase duration="3" state="yyyyyyyyyrrrrrrrrrrrrrrrrrryyyyyyyyyrrrrrrrrrrrrrrrrrrrrrrrrrrrrrrrrrrrrrrrrrrrrryyyyyyyyyrrrrrrrrrrrrrrrrrr"/>
		<phase duration="5" state="sssssssssrrrrrrrrrssssssssssssssssssrrrrrrrrrrrrrrrrrrsssssssssrrrrrrrrrrrrrrrrrrsssssssssrrrrrrrrrrrrrrrrrr"/>
		<phase duration="10" state="GGGGGGGGGrrrrrrrrrrrrrrrrrrGGGGGGGGGGGGGGGGGGrrrrrrrrrGGGGGGGGGrrrrrrrrrrrrrrrrrrGGGGGGGGGGGGGGGGGGrrrrrrrrr"/>
		<phase duration="5" state="sssssssssrrrrrrrrrssssssssssssssssssrrrrrrrrrrrrrrrrrrsssssssssrrrrrrrrrrrrrrrrrrsssssssssrrrrrrrrrrrrrrrrrr"/>
		<phase duration="3" state="yyyyyyyyyrrrrrrrrrrrrrrrrrrrrrrrrrrrrrrrrrrrrrrrrrrrrryyyyyyyyyrrrrrrrrrrrrrrrrrrrrrrrrrrrrrrrrrrrrrrrrrrrrr"/>
		<phase duration="5" state="sssssssssrrrrrrrrrssssssssssssssssssrrrrrrrrrrrrrrrrrrsssssssssrrrrrrrrrrrrrrrrrrsssssssssrrrrrrrrrrrrrrrrrr"/>
		<phase duration="10" state="GGGGGGGGGrrrrrrrrrrrrrrrrrrGGGGGGGGGrrrrrrrrrGGGGGGGGGGGGGGGGGGrrrrrrrrrrrrrrrrrrGGGGGGGGGrrrrrrrrrGGGGGGGGG"/>
		<phase duration="5" state="sssssssssrrrrrrrrrssssssssssssssssssrrrrrrrrrrrrrrrrrrsssssssssrrrrrrrrrrrrrrrrrrsssssssssrrrrrrrrrrrrrrrrrr"/>
		<phase duration="3" state="yyyyyyyyyrrrrrrrrrrrrrrrrrryyyyyyyyyrrrrrrrrrrrrrrrrrryyyyyyyyyrrrrrrrrrrrrrrrrrryyyyyyyyyrrrrrrrrryyyyyyyyy"/>
		<phase duration="5" state="sssssssssrrrrrrrrrssssssssssssssssssrrrrrrrrrrrrrrrrrrsssssssssrrrrrrrrrrrrrrrrrrsssssssssrrrrrrrrrrrrrrrrrr"/>
		<phase duration="10" state="GGGGGGGGGrrrrrrrrrrrrrrrrrrGGGGGGGGGrrrrrrrrrrrrrrrrrrGGGGGGGGGrrrrrrrrrrrrrrrrrrGGGGGGGGGGGGGGGGGGGGGGGGGGG"/>
		<phase duration="5" state="sssssssssrrrrrrrrrssssssssssssssssssrrrrrrrrrrrrrrrrrrsssssssssrrrrrrrrrrrrrrrrrrsssssssssrrrrrrrrrsssssssss"/>
		<phase duration="3" state="yyyyyyyyyrrrrrrrrrrrrrrrrrryyyyyyyyyrrrrrrrrrrrrrrrrrryyyyyyyyyrrrrrrrrrrrrrrrrrrrrrrrrrrrrrrrrrrrrrrrrrrrrr"/>
		<phase duration="5" state="sssssssssrrrrrrrrrssssssssssssssssssrrrrrrrrrrrrrrrrrrsssssssssrrrrrrrrrrrrrrrrrrsssssssssrrrrrrrrrsssssssss"/>
		<phase duration="10" state="GGGGGGGGGrrrrrrrrrrrrrrrrrrGGGGGGGGGGGGGGGGGGGGGGGGGGGGGGGGGGGGrrrrrrrrrrrrrrrrrrGGGGGGGGGrrrrrrrrrrrrrrrrrr"/>
		<phase duration="5" state="sssssssssrrrrrrrrrssssssssssssssssssrrrrrrrrrrrrrrrrrrsssssssssrrrrrrrrrrrrrrrrrrsssssssssrrrrrrrrrsssssssss"/>
		<phase duration="3" state="yyyyyyyyyrrrrrrrrrrrrrrrrrrrrrrrrrrrrrrrrrrrrrrrrrrrrryyyyyyyyyrrrrrrrrrrrrrrrrrryyyyyyyyyrrrrrrrrrrrrrrrrrr"/>
		<phase duration="5" state="sssssssssrrrrrrrrrssssssssssssssssssrrrrrrrrrrrrrrrrrrsssssssssrrrrrrrrrrrrrrrrrrsssssssssrrrrrrrrrsssssssss"/>
	</tlLogic>
	<tlLogic id="A0" type="static" programID="0" offset="0">
		<phase duration="3" state="rrrrrrrrrrrrrrrrrrrrrrrrrrryyyyyyyyyrrrrrrrrrrrrrrrrrrrrrrrrrrrrrrrrrrrrrrrrrrrrryyyyyyyyyrrrrrrrrrrrrrrrrrr"/>
		<phase duration="5" state="rrrrrrrrrrrrrrrrrrrrrrrrrrrrrrrrrrrrrrrrrrrrrrrrrrrrrrrrrrrrrrrrrrrrrrrrrrrrrrrrrrrrrrrrrrrrrrrrrrrrrrrrrrrr"/>
		<phase duration="10" state="GGGGGGGGGrrrrrrrrrGGGGGGGGGGGGGGGGGGrrrrrrrrrrrrrrrrrrGGGGGGGGGrrrrrrrrrGGGGGGGGGGGGGGGGGGrrrrrrrrrrrrrrrrrr"/>
		<phase duration="5" state="rrrrrrrrrrrrrrrrrrrrrrrrrrrsssssssssrrrrrrrrrrrrrrrrrrrrrrrrrrrrrrrrrrrrrrrrrrrrrsssssssssrrrrrrrrrrrrrrrrrr"/>
		<phase duration="3" state="yyyyyyyyyrrrrrrrrryyyyyyyyyyyyyyyyyyrrrrrrrrrrrrrrrrrryyyyyyyyyrrrrrrrrrrrrrrrrrryyyyyyyyyrrrrrrrrrrrrrrrrrr"/>
		<phase duration="5" state="rrrrrrrrrrrrrrrrrrrrrrrrrrrsssssssssrrrrrrrrrrrrrrrrrrrrrrrrrrrrrrrrrrrrrrrrrrrrrsssssssssrrrrrrrrrrrrrrrrrr"/>
		<phase duration="10" state="GGGGGGGGGGGGGGGGGGGGGGGGGGGGGGGGGGGGrrrrrrrrrrrrrrrrrrGGGGGGGGGrrrrrrrrrrrrrrrrrrGGGGGGGGGrrrrrrrrrrrrrrrrrr"/>
		<phase duration="5" state="sssssssssrrrrrrrrrssssssssssssssssssrrrrrrrrrrrrrrrrrrsssssssssrrrrrrrrrrrrrrrrrrsssssssssrrrrrrrrrrrrrrrrrr"/>
		<phase duration="3" state="rrrrrrrrrrrrrrrrrrrrrrrrrrryyyyyyyyyrrrrrrrrrrrrrrrrrryyyyyyyyyrrrrrrrrrrrrrrrrrryyyyyyyyyrrrrrrrrrrrrrrrrrr"/>
		<phase duration="5" state="sssssssssrrrrrrrrrssssssssssssssssssrrrrrrrrrrrrrrrrrrsssssssssrrrrrrrrrrrrrrrrrrsssssssssrrrrrrrrrrrrrrrrrr"/>
		<phase duration="10" state="GGGGGGGGGrrrrrrrrrrrrrrrrrrGGGGGGGGGrrrrrrrrrrrrrrrrrrGGGGGGGGGGGGGGGGGGGGGGGGGGGGGGGGGGGGrrrrrrrrrrrrrrrrrr"/>
		<phase duration="5" state="sssssssssrrrrrrrrrssssssssssssssssssrrrrrrrrrrrrrrrrrrsssssssssrrrrrrrrrrrrrrrrrrsssssssssrrrrrrrrrrrrrrrrrr"/>
		<phase duration="3" state="yyyyyyyyyrrrrrrrrrrrrrrrrrryyyyyyyyyrrrrrrrrrrrrrrrrrrrrrrrrrrrrrrrrrrrrrrrrrrrrryyyyyyyyyrrrrrrrrrrrrrrrrrr"/>
		<phase duration="5" state="sssssssssrrrrrrrrrssssssssssssssssssrrrrrrrrrrrrrrrrrrsssssssssrrrrrrrrrrrrrrrrrrsssssssssrrrrrrrrrrrrrrrrrr"/>
		<phase duration="10" state="GGGGGGGGGrrrrrrrrrrrrrrrrrrGGGGGGGGGGGGGGGGGGrrrrrrrrrGGGGGGGGGrrrrrrrrrrrrrrrrrrGGGGGGGGGGGGGGGGGGrrrrrrrrr"/>
		<phase duration="5" state="sssssssssrrrrrrrrrssssssssssssssssssrrrrrrrrrrrrrrrrrrsssssssssrrrrrrrrrrrrrrrrrrsssssssssrrrrrrrrrrrrrrrrrr"/>
		<phase duration="3" state="yyyyyyyyyrrrrrrrrrrrrrrrrrrrrrrrrrrrrrrrrrrrrrrrrrrrrryyyyyyyyyrrrrrrrrrrrrrrrrrrrrrrrrrrrrrrrrrrrrrrrrrrrrr"/>
		<phase duration="5" state="sssssssssrrrrrrrrrssssssssssssssssssrrrrrrrrrrrrrrrrrrsssssssssrrrrrrrrrrrrrrrrrrsssssssssrrrrrrrrrrrrrrrrrr"/>
		<phase duration="10" state="GGGGGGGGGrrrrrrrrrrrrrrrrrrGGGGGGGGGrrrrrrrrrGGGGGGGGGGGGGGGGGGrrrrrrrrrrrrrrrrrrGGGGGGGGGrrrrrrrrrGGGGGGGGG"/>
		<phase duration="5" state="sssssssssrrrrrrrrrssssssssssssssssssrrrrrrrrrrrrrrrrrrsssssssssrrrrrrrrrrrrrrrrrrsssssssssrrrrrrrrrrrrrrrrrr"/>
		<phase duration="3" state="yyyyyyyyyrrrrrrrrrrrrrrrrrryyyyyyyyyrrrrrrrrrrrrrrrrrryyyyyyyyyrrrrrrrrrrrrrrrrrryyyyyyyyyrrrrrrrrryyyyyyyyy"/>
		<phase duration="5" state="sssssssssrrrrrrrrrssssssssssssssssssrrrrrrrrrrrrrrrrrrsssssssssrrrrrrrrrrrrrrrrrrsssssssssrrrrrrrrrrrrrrrrrr"/>
		<phase duration="10" state="GGGGGGGGGrrrrrrrrrrrrrrrrrrGGGGGGGGGrrrrrrrrrrrrrrrrrrGGGGGGGGGrrrrrrrrrrrrrrrrrrGGGGGGGGGGGGGGGGGGGGGGGGGGG"/>
		<phase duration="5" state="sssssssssrrrrrrrrrssssssssssssssssssrrrrrrrrrrrrrrrrrrsssssssssrrrrrrrrrrrrrrrrrrsssssssssrrrrrrrrrsssssssss"/>
		<phase duration="3" state="yyyyyyyyyrrrrrrrrrrrrrrrrrryyyyyyyyyrrrrrrrrrrrrrrrrrryyyyyyyyyrrrrrrrrrrrrrrrrrrrrrrrrrrrrrrrrrrrrrrrrrrrrr"/>
		<phase duration="5" state="sssssssssrrrrrrrrrssssssssssssssssssrrrrrrrrrrrrrrrrrrsssssssssrrrrrrrrrrrrrrrrrrsssssssssrrrrrrrrrsssssssss"/>
		<phase duration="10" state="GGGGGGGGGrrrrrrrrrrrrrrrrrrGGGGGGGGGGGGGGGGGGGGGGGGGGGGGGGGGGGGrrrrrrrrrrrrrrrrrrGGGGGGGGGrrrrrrrrrrrrrrrrrr"/>
		<phase duration="5" state="sssssssssrrrrrrrrrssssssssssssssssssrrrrrrrrrrrrrrrrrrsssssssssrrrrrrrrrrrrrrrrrrsssssssssrrrrrrrrrsssssssss"/>
		<phase duration="3" state="yyyyyyyyyrrrrrrrrrrrrrrrrrrrrrrrrrrrrrrrrrrrrrrrrrrrrryyyyyyyyyrrrrrrrrrrrrrrrrrryyyyyyyyyrrrrrrrrrrrrrrrrrr"/>
		<phase duration="5" state="sssssssssrrrrrrrrrssssssssssssssssssrrrrrrrrrrrrrrrrrrsssssssssrrrrrrrrrrrrrrrrrrsssssssssrrrrrrrrrsssssssss"/>
	</tlLogic>
	<tlLogic id="A0" type="static" programID="0" offset="0">
		<phase duration="3" state="rrrrrrrrrrrrrrrrrrrrrrrrrrryyyyyyyyyrrrrrrrrrrrrrrrrrrrrrrrrrrrrrrrrrrrrrrrrrrrrryyyyyyyyyrrrrrrrrrrrrrrrrrr"/>
		<phase duration="5" state="rrrrrrrrrrrrrrrrrrrrrrrrrrrrrrrrrrrrrrrrrrrrrrrrrrrrrrrrrrrrrrrrrrrrrrrrrrrrrrrrrrrrrrrrrrrrrrrrrrrrrrrrrrrr"/>
		<phase duration="10" state="GGGGGGGGGrrrrrrrrrGGGGGGGGGGGGGGGGGGrrrrrrrrrrrrrrrrrrGGGGGGGGGrrrrrrrrrGGGGGGGGGGGGGGGGGGrrrrrrrrrrrrrrrrrr"/>
		<phase duration="5" state="rrrrrrrrrrrrrrrrrrrrrrrrrrrsssssssssrrrrrrrrrrrrrrrrrrrrrrrrrrrrrrrrrrrrrrrrrrrrrsssssssssrrrrrrrrrrrrrrrrrr"/>
		<phase duration="3" state="yyyyyyyyyrrrrrrrrryyyyyyyyyyyyyyyyyyrrrrrrrrrrrrrrrrrryyyyyyyyyrrrrrrrrrrrrrrrrrryyyyyyyyyrrrrrrrrrrrrrrrrrr"/>
		<phase duration="5" state="rrrrrrrrrrrrrrrrrrrrrrrrrrrsssssssssrrrrrrrrrrrrrrrrrrrrrrrrrrrrrrrrrrrrrrrrrrrrrsssssssssrrrrrrrrrrrrrrrrrr"/>
		<phase duration="10" state="GGGGGGGGGGGGGGGGGGGGGGGGGGGGGGGGGGGGrrrrrrrrrrrrrrrrrrGGGGGGGGGrrrrrrrrrrrrrrrrrrGGGGGGGGGrrrrrrrrrrrrrrrrrr"/>
		<phase duration="5" state="sssssssssrrrrrrrrrssssssssssssssssssrrrrrrrrrrrrrrrrrrsssssssssrrrrrrrrrrrrrrrrrrsssssssssrrrrrrrrrrrrrrrrrr"/>
		<phase duration="3" state="rrrrrrrrrrrrrrrrrrrrrrrrrrryyyyyyyyyrrrrrrrrrrrrrrrrrryyyyyyyyyrrrrrrrrrrrrrrrrrryyyyyyyyyrrrrrrrrrrrrrrrrrr"/>
		<phase duration="5" state="sssssssssrrrrrrrrrssssssssssssssssssrrrrrrrrrrrrrrrrrrsssssssssrrrrrrrrrrrrrrrrrrsssssssssrrrrrrrrrrrrrrrrrr"/>
		<phase duration="10" state="GGGGGGGGGrrrrrrrrrrrrrrrrrrGGGGGGGGGrrrrrrrrrrrrrrrrrrGGGGGGGGGGGGGGGGGGGGGGGGGGGGGGGGGGGGrrrrrrrrrrrrrrrrrr"/>
		<phase duration="5" state="sssssssssrrrrrrrrrssssssssssssssssssrrrrrrrrrrrrrrrrrrsssssssssrrrrrrrrrrrrrrrrrrsssssssssrrrrrrrrrrrrrrrrrr"/>
		<phase duration="3" state="yyyyyyyyyrrrrrrrrrrrrrrrrrryyyyyyyyyrrrrrrrrrrrrrrrrrrrrrrrrrrrrrrrrrrrrrrrrrrrrryyyyyyyyyrrrrrrrrrrrrrrrrrr"/>
		<phase duration="5" state="sssssssssrrrrrrrrrssssssssssssssssssrrrrrrrrrrrrrrrrrrsssssssssrrrrrrrrrrrrrrrrrrsssssssssrrrrrrrrrrrrrrrrrr"/>
		<phase duration="10" state="GGGGGGGGGrrrrrrrrrrrrrrrrrrGGGGGGGGGGGGGGGGGGrrrrrrrrrGGGGGGGGGrrrrrrrrrrrrrrrrrrGGGGGGGGGGGGGGGGGGrrrrrrrrr"/>
		<phase duration="5" state="sssssssssrrrrrrrrrssssssssssssssssssrrrrrrrrrrrrrrrrrrsssssssssrrrrrrrrrrrrrrrrrrsssssssssrrrrrrrrrrrrrrrrrr"/>
		<phase duration="3" state="yyyyyyyyyrrrrrrrrrrrrrrrrrrrrrrrrrrrrrrrrrrrrrrrrrrrrryyyyyyyyyrrrrrrrrrrrrrrrrrrrrrrrrrrrrrrrrrrrrrrrrrrrrr"/>
		<phase duration="5" state="sssssssssrrrrrrrrrssssssssssssssssssrrrrrrrrrrrrrrrrrrsssssssssrrrrrrrrrrrrrrrrrrsssssssssrrrrrrrrrrrrrrrrrr"/>
		<phase duration="10" state="GGGGGGGGGrrrrrrrrrrrrrrrrrrGGGGGGGGGrrrrrrrrrGGGGGGGGGGGGGGGGGGrrrrrrrrrrrrrrrrrrGGGGGGGGGrrrrrrrrrGGGGGGGGG"/>
		<phase duration="5" state="sssssssssrrrrrrrrrssssssssssssssssssrrrrrrrrrrrrrrrrrrsssssssssrrrrrrrrrrrrrrrrrrsssssssssrrrrrrrrrrrrrrrrrr"/>
		<phase duration="3" state="yyyyyyyyyrrrrrrrrrrrrrrrrrryyyyyyyyyrrrrrrrrrrrrrrrrrryyyyyyyyyrrrrrrrrrrrrrrrrrryyyyyyyyyrrrrrrrrryyyyyyyyy"/>
		<phase duration="5" state="sssssssssrrrrrrrrrssssssssssssssssssrrrrrrrrrrrrrrrrrrsssssssssrrrrrrrrrrrrrrrrrrsssssssssrrrrrrrrrrrrrrrrrr"/>
		<phase duration="10" state="GGGGGGGGGrrrrrrrrrrrrrrrrrrGGGGGGGGGrrrrrrrrrrrrrrrrrrGGGGGGGGGrrrrrrrrrrrrrrrrrrGGGGGGGGGGGGGGGGGGGGGGGGGGG"/>
		<phase duration="5" state="sssssssssrrrrrrrrrssssssssssssssssssrrrrrrrrrrrrrrrrrrsssssssssrrrrrrrrrrrrrrrrrrsssssssssrrrrrrrrrsssssssss"/>
		<phase duration="3" state="yyyyyyyyyrrrrrrrrrrrrrrrrrryyyyyyyyyrrrrrrrrrrrrrrrrrryyyyyyyyyrrrrrrrrrrrrrrrrrrrrrrrrrrrrrrrrrrrrrrrrrrrrr"/>
		<phase duration="5" state="sssssssssrrrrrrrrrssssssssssssssssssrrrrrrrrrrrrrrrrrrsssssssssrrrrrrrrrrrrrrrrrrsssssssssrrrrrrrrrsssssssss"/>
		<phase duration="10" state="GGGGGGGGGrrrrrrrrrrrrrrrrrrGGGGGGGGGGGGGGGGGGGGGGGGGGGGGGGGGGGGrrrrrrrrrrrrrrrrrrGGGGGGGGGrrrrrrrrrrrrrrrrrr"/>
		<phase duration="5" state="sssssssssrrrrrrrrrssssssssssssssssssrrrrrrrrrrrrrrrrrrsssssssssrrrrrrrrrrrrrrrrrrsssssssssrrrrrrrrrsssssssss"/>
		<phase duration="3" state="yyyyyyyyyrrrrrrrrrrrrrrrrrrrrrrrrrrrrrrrrrrrrrrrrrrrrryyyyyyyyyrrrrrrrrrrrrrrrrrryyyyyyyyyrrrrrrrrrrrrrrrrrr"/>
		<phase duration="5" state="sssssssssrrrrrrrrrssssssssssssssssssrrrrrrrrrrrrrrrrrrsssssssssrrrrrrrrrrrrrrrrrrsssssssssrrrrrrrrrsssssssss"/>
	</tlLogic>
	<tlLogic id="A0" type="static" programID="0" offset="0">
		<phase duration="3" state="rrrrrrrrrrrrrrrrrrrrrrrrrrryyyyyyyyyrrrrrrrrrrrrrrrrrrrrrrrrrrrrrrrrrrrrrrrrrrrrryyyyyyyyyrrrrrrrrrrrrrrrrrr"/>
		<phase duration="5" state="rrrrrrrrrrrrrrrrrrrrrrrrrrrrrrrrrrrrrrrrrrrrrrrrrrrrrrrrrrrrrrrrrrrrrrrrrrrrrrrrrrrrrrrrrrrrrrrrrrrrrrrrrrrr"/>
		<phase duration="10" state="GGGGGGGGGrrrrrrrrrGGGGGGGGGGGGGGGGGGrrrrrrrrrrrrrrrrrrGGGGGGGGGrrrrrrrrrGGGGGGGGGGGGGGGGGGrrrrrrrrrrrrrrrrrr"/>
		<phase duration="5" state="rrrrrrrrrrrrrrrrrrrrrrrrrrrsssssssssrrrrrrrrrrrrrrrrrrrrrrrrrrrrrrrrrrrrrrrrrrrrrsssssssssrrrrrrrrrrrrrrrrrr"/>
		<phase duration="3" state="yyyyyyyyyrrrrrrrrryyyyyyyyyyyyyyyyyyrrrrrrrrrrrrrrrrrryyyyyyyyyrrrrrrrrrrrrrrrrrryyyyyyyyyrrrrrrrrrrrrrrrrrr"/>
		<phase duration="5" state="rrrrrrrrrrrrrrrrrrrrrrrrrrrsssssssssrrrrrrrrrrrrrrrrrrrrrrrrrrrrrrrrrrrrrrrrrrrrrsssssssssrrrrrrrrrrrrrrrrrr"/>
		<phase duration="10" state="GGGGGGGGGGGGGGGGGGGGGGGGGGGGGGGGGGGGrrrrrrrrrrrrrrrrrrGGGGGGGGGrrrrrrrrrrrrrrrrrrGGGGGGGGGrrrrrrrrrrrrrrrrrr"/>
		<phase duration="5" state="sssssssssrrrrrrrrrssssssssssssssssssrrrrrrrrrrrrrrrrrrsssssssssrrrrrrrrrrrrrrrrrrsssssssssrrrrrrrrrrrrrrrrrr"/>
		<phase duration="3" state="rrrrrrrrrrrrrrrrrrrrrrrrrrryyyyyyyyyrrrrrrrrrrrrrrrrrryyyyyyyyyrrrrrrrrrrrrrrrrrryyyyyyyyyrrrrrrrrrrrrrrrrrr"/>
		<phase duration="5" state="sssssssssrrrrrrrrrssssssssssssssssssrrrrrrrrrrrrrrrrrrsssssssssrrrrrrrrrrrrrrrrrrsssssssssrrrrrrrrrrrrrrrrrr"/>
		<phase duration="10" state="GGGGGGGGGrrrrrrrrrrrrrrrrrrGGGGGGGGGrrrrrrrrrrrrrrrrrrGGGGGGGGGGGGGGGGGGGGGGGGGGGGGGGGGGGGrrrrrrrrrrrrrrrrrr"/>
		<phase duration="5" state="sssssssssrrrrrrrrrssssssssssssssssssrrrrrrrrrrrrrrrrrrsssssssssrrrrrrrrrrrrrrrrrrsssssssssrrrrrrrrrrrrrrrrrr"/>
		<phase duration="3" state="yyyyyyyyyrrrrrrrrrrrrrrrrrryyyyyyyyyrrrrrrrrrrrrrrrrrrrrrrrrrrrrrrrrrrrrrrrrrrrrryyyyyyyyyrrrrrrrrrrrrrrrrrr"/>
		<phase duration="5" state="sssssssssrrrrrrrrrssssssssssssssssssrrrrrrrrrrrrrrrrrrsssssssssrrrrrrrrrrrrrrrrrrsssssssssrrrrrrrrrrrrrrrrrr"/>
		<phase duration="10" state="GGGGGGGGGrrrrrrrrrrrrrrrrrrGGGGGGGGGGGGGGGGGGrrrrrrrrrGGGGGGGGGrrrrrrrrrrrrrrrrrrGGGGGGGGGGGGGGGGGGrrrrrrrrr"/>
		<phase duration="5" state="sssssssssrrrrrrrrrssssssssssssssssssrrrrrrrrrrrrrrrrrrsssssssssrrrrrrrrrrrrrrrrrrsssssssssrrrrrrrrrrrrrrrrrr"/>
		<phase duration="3" state="yyyyyyyyyrrrrrrrrrrrrrrrrrrrrrrrrrrrrrrrrrrrrrrrrrrrrryyyyyyyyyrrrrrrrrrrrrrrrrrrrrrrrrrrrrrrrrrrrrrrrrrrrrr"/>
		<phase duration="5" state="sssssssssrrrrrrrrrssssssssssssssssssrrrrrrrrrrrrrrrrrrsssssssssrrrrrrrrrrrrrrrrrrsssssssssrrrrrrrrrrrrrrrrrr"/>
		<phase duration="10" state="GGGGGGGGGrrrrrrrrrrrrrrrrrrGGGGGGGGGrrrrrrrrrGGGGGGGGGGGGGGGGGGrrrrrrrrrrrrrrrrrrGGGGGGGGGrrrrrrrrrGGGGGGGGG"/>
		<phase duration="5" state="sssssssssrrrrrrrrrssssssssssssssssssrrrrrrrrrrrrrrrrrrsssssssssrrrrrrrrrrrrrrrrrrsssssssssrrrrrrrrrrrrrrrrrr"/>
		<phase duration="3" state="yyyyyyyyyrrrrrrrrrrrrrrrrrryyyyyyyyyrrrrrrrrrrrrrrrrrryyyyyyyyyrrrrrrrrrrrrrrrrrryyyyyyyyyrrrrrrrrryyyyyyyyy"/>
		<phase duration="5" state="sssssssssrrrrrrrrrssssssssssssssssssrrrrrrrrrrrrrrrrrrsssssssssrrrrrrrrrrrrrrrrrrsssssssssrrrrrrrrrrrrrrrrrr"/>
		<phase duration="10" state="GGGGGGGGGrrrrrrrrrrrrrrrrrrGGGGGGGGGrrrrrrrrrrrrrrrrrrGGGGGGGGGrrrrrrrrrrrrrrrrrrGGGGGGGGGGGGGGGGGGGGGGGGGGG"/>
		<phase duration="5" state="sssssssssrrrrrrrrrssssssssssssssssssrrrrrrrrrrrrrrrrrrsssssssssrrrrrrrrrrrrrrrrrrsssssssssrrrrrrrrrsssssssss"/>
		<phase duration="3" state="yyyyyyyyyrrrrrrrrrrrrrrrrrryyyyyyyyyrrrrrrrrrrrrrrrrrryyyyyyyyyrrrrrrrrrrrrrrrrrrrrrrrrrrrrrrrrrrrrrrrrrrrrr"/>
		<phase duration="5" state="sssssssssrrrrrrrrrssssssssssssssssssrrrrrrrrrrrrrrrrrrsssssssssrrrrrrrrrrrrrrrrrrsssssssssrrrrrrrrrsssssssss"/>