<?xml version="1.0" encoding="utf-8"?>
<routes>
    <vType id="car" length="5.0" width="2.0" minGap="2.5" maxSpeed="11.111" accel="2.0" decel="4.5" color="0.8,0.8,0.8"/>
    <vehicle id="v0" type="car" depart="4.00" departLane="best" departSpeed="0"><route edges="bottom0A0 A0A1 A1A2 A2B2 B2C2 C2D2 D2right2"/></vehicle>
    <vehicle id="v1" type="car" depart="5.00" departLane="best" departSpeed="0"><route edges="bottom3D0 D0D1 D1D2 D2right2"/></vehicle>
    <vehicle id="v2" type="car" depart="5.00" departLane="best" departSpeed="0"><route edges="left1A1 A1B1 B1C1 C1C2 C2C3 C3top2"/></vehicle>
    <vehicle id="v3" type="car" depart="5.00" departLane="best" departSpeed="0"><route edges="top3D3 D3D2 D2right2"/></vehicle>
    <vehicle id="v4" type="car" depart="8.00" departLane="best" departSpeed="0"><route edges="right3D3 D3C3 C3B3 B3A3 A3A2 A2A1 A1A0 A0bottom0"/></vehicle>
    <vehicle id="v5" type="car" depart="11.00" departLane="best" departSpeed="0"><route edges="right0D0 D0D1 D1D2 D2D3 D3right3"/></vehicle>
    <vehicle id="v6" type="car" depart="13.00" departLane="best" departSpeed="0"><route edges="left0A0 A0bottom0"/></vehicle>
    <vehicle id="v7" type="car" depart="23.00" departLane="best" departSpeed="0"><route edges="right2D2 D2D3 D3right3"/></vehicle>
    <vehicle id="v8" type="car" depart="23.00" departLane="best" departSpeed="0"><route edges="top0A3 A3left3"/></vehicle>
    <vehicle id="v9" type="car" depart="29.00" departLane="best" departSpeed="0"><route edges="bottom2C0 C0C1 C1C2 C2C3 C3D3 D3right3"/></vehicle>
    <vehicle id="v10" type="car" depart="30.00" departLane="best" departSpeed="0"><route edges="bottom3D0 D0C0 C0C1 C1D1 D1D0 D0bottom3"/></vehicle>
    <vehicle id="v11" type="car" depart="34.00" departLane="best" departSpeed="0"><route edges="bottom2C0 C0C1 C1D1 D1right1"/></vehicle>
    <vehicle id="v12" type="car" depart="43.00" departLane="best" departSpeed="0"><route edges="right0D0 D0C0 C0B0 B0A0 A0bottom0"/></vehicle>
    <vehicle id="v13" type="car" depart="51.00" departLane="best" departSpeed="0"><route edges="left2A2 A2A1 A1A0 A0left0"/></vehicle>
    <vehicle id="v14" type="car" depart="56.00" departLane="best" departSpeed="0"><route edges="right1D1 D1D2 D2C2 C2B2 B2A2 A2left2"/></vehicle>
    <vehicle id="v15" type="car" depart="60.00" departLane="best" departSpeed="0"><route edges="top3D3 D3D2 D2D1 D1right1"/></vehicle>
    <vehicle id="v16" type="car" depart="63.00" departLane="best" departSpeed="0"><route edges="top0A3 A3A2 A2B2 B2C2 C2D2 D2D1 D1D0 D0bottom3"/></vehicle>
    <vehicle id="v17" type="car" depart="65.00" departLane="best" departSpeed="0"><route edges="bottom3D0 D0D1 D1D2 D2D3 D3right3"/></vehicle>
    <vehicle id="v18" type="car" depart="66.00" departLane="best" departSpeed="0"><route edges="left2A2 A2B2 B2C2 C2D2 D2D1 D1D0 D0right0"/></vehicle>
    <vehicle id="v19" type="car" depart="67.00" departLane="best" departSpeed="0"><route edges="bottom2C0 C0C1 C1C2 C2C3 C3D3 D3right3"/></vehicle>
    <vehicle id="v20" type="car" depart="70.00" departLane="best" departSpeed="0"><route edges="right1D1 D1C1 C1C2 C2C3 C3top2"/></vehicle>
    <vehicle id="v21" type="car" depart="72.00" departLane="best" departSpeed="0"><route edges="right2D2 D2D3 D3C3 C3B3 B3A3 A3left3"/></vehicle>
    <vehicle id="v22" type="car" depart="73.00" departLane="best" departSpeed="0"><route edges="right0D0 D0C0 C0B0 B0A0 A0A1 A1A2 A2left2"/></vehicle>
    <vehicle id="v23" type="car" depart="74.00" departLane="best" departSpeed="0"><route edges="right2D2 D2C2 C2C3 C3D3 D3D2 D2right2"/></vehicle>
    <vehicle id="v24" type="car" depart="77.00" departLane="best" departSpeed="0"><route edges="right3D3 D3D2 D2right2"/></vehicle>
    <vehicle id="v25" type="car" depart="78.00" departLane="best" departSpeed="0"><route edges="bottom1B0 B0B1 B1A1 A1left1"/></vehicle>
    <vehicle id="v26" type="car" depart="82.00" departLane="best" departSpeed="0"><route edges="top0A3 A3B3 B3top1"/></vehicle>
    <vehicle id="v27" type="car" depart="83.00" departLane="best" departSpeed="0"><route edges="left2A2 A2A3 A3left3"/></vehicle>
    <vehicle id="v28" type="car" depart="85.00" departLane="best" departSpeed="0"><route edges="right3D3 D3D2 D2D1 D1right1"/></vehicle>
    <vehicle id="v29" type="car" depart="88.00" departLane="best" departSpeed="0"><route edges="top0A3 A3B3 B3B2 B2A2 A2A3 A3top0"/></vehicle>
    <vehicle id="v30" type="car" depart="91.00" departLane="best" departSpeed="0"><route edges="right2D2 D2C2 C2C1 C1B1 B1A1 A1left1"/></vehicle>
    <vehicle id="v31" type="car" depart="92.00" departLane="best" departSpeed="0"><route edges="top1B3 B3C3 C3top2"/></vehicle>
    <vehicle id="v32" type="car" depart="95.00" departLane="best" departSpeed="0"><route edges="left1A1 A1B1 B1C1 C1C2 C2C3 C3top2"/></vehicle>
    <vehicle id="v33" type="car" depart="97.00" departLane="best" departSpeed="0"><route edges="right1D1 D1C1 C1B1 B1A1 A1A0 A0bottom0"/></vehicle>
    <vehicle id="v34" type="car" depart="98.00" departLane="best" departSpeed="0"><route edges="bottom1B0 B0A0 A0bottom0"/></vehicle>
    <vehicle id="v35" type="car" depart="100.00" departLane="best" departSpeed="0"><route edges="bottom2C0 C0C1 C1B1 B1B2 B2B3 B3top1"/></vehicle>
    <vehicle id="v36" type="car" depart="106.00" departLane="best" departSpeed="0"><route edges="top3D3 D3C3 C3top2"/></vehicle>
    <vehicle id="v37" type="car" depart="108.00" departLane="best" departSpeed="0"><route edges="left0A0 A0A1 A1B1 B1B0 B0A0 A0left0"/></vehicle>
    <vehicle id="v38" type="car" depart="112.00" departLane="best" departSpeed="0"><route edges="right2D2 D2C2 C2B2 B2A2 A2A1 A1A0 A0bottom0"/></vehicle>
    <vehicle id="v39" type="car" depart="113.00" departLane="best" departSpeed="0"><route edges="left0A0 A0A1 A1A2 A2left2"/></vehicle>
    <vehicle id="v40" type="car" depart="114.00" departLane="best" departSpeed="0"><route edges="bottom2C0 C0C1 C1C2 C2C3 C3D3 D3right3"/></vehicle>
    <vehicle id="v41" type="car" depart="117.00" departLane="best" departSpeed="0"><route edges="top0A3 A3A2 A2A1 A1left1"/></vehicle>
    <vehicle id="v42" type="car" depart="117.00" departLane="best" departSpeed="0"><route edges="top2C3 C3B3 B3A3 A3top0"/></vehicle>
    <vehicle id="v43" type="car" depart="121.00" departLane="best" departSpeed="0"><route edges="left0A0 A0B0 B0C0 C0bottom2"/></vehicle>
    <vehicle id="v44" type="car" depart="122.00" departLane="best" departSpeed="0"><route edges="bottom3D0 D0C0 C0C1 C1D1 D1D0 D0bottom3"/></vehicle>
    <vehicle id="v45" type="car" depart="123.00" departLane="best" departSpeed="0"><route edges="top1B3 B3B2 B2C2 C2D2 D2right2"/></vehicle>
    <vehicle id="v46" type="car" depart="128.00" departLane="best" departSpeed="0"><route edges="bottom2C0 C0D0 D0right0"/></vehicle>
    <vehicle id="v47" type="car" depart="132.00" departLane="best" departSpeed="0"><route edges="left1A1 A1B1 B1B0 B0bottom1"/></vehicle>
    <vehicle id="v48" type="car" depart="134.00" departLane="best" departSpeed="0"><route edges="left0A0 A0A1 A1left1"/></vehicle>
    <vehicle id="v49" type="car" depart="143.00" departLane="best" departSpeed="0"><route edges="bottom3D0 D0D1 D1D2 D2D3 D3right3"/></vehicle>
    <vehicle id="v50" type="car" depart="146.00" departLane="best" departSpeed="0"><route edges="left0A0 A0A1 A1left1"/></vehicle>
    <vehicle id="v51" type="car" depart="148.00" departLane="best" departSpeed="0"><route edges="left2A2 A2B2 B2C2 C2D2 D2D3 D3top3"/></vehicle>
    <vehicle id="v52" type="car" depart="156.00" departLane="best" departSpeed="0"><route edges="left2A2 A2B2 B2C2 C2D2 D2D3 D3top3"/></vehicle>
    <vehicle id="v53" type="car" depart="162.00" departLane="best" departSpeed="0"><route edges="bottom0A0 A0A1 A1left1"/></vehicle>
    <vehicle id="v54" type="car" depart="169.00" departLane="best" departSpeed="0"><route edges="right3D3 D3C3 C3C2 C2C1 C1B1 B1A1 A1left1"/></vehicle>
    <vehicle id="v55" type="car" depart="173.00" departLane="best" departSpeed="0"><route edges="bottom3D0 D0C0 C0B0 B0bottom1"/></vehicle>
    <vehicle id="v56" type="car" depart="174.00" departLane="best" departSpeed="0"><route edges="right0D0 D0C0 C0B0 B0bottom1"/></vehicle>
    <vehicle id="v57" type="car" depart="175.00" departLane="best" departSpeed="0"><route edges="top0A3 A3B3 B3C3 C3D3 D3right3"/></vehicle>
    <vehicle id="v58" type="car" depart="182.00" departLane="best" departSpeed="0"><route edges="top0A3 A3A2 A2B2 B2C2 C2C1 C1C0 C0bottom2"/></vehicle>
    <vehicle id="v59" type="car" depart="183.00" departLane="best" departSpeed="0"><route edges="bottom2C0 C0C1 C1C2 C2C3 C3B3 B3A3 A3left3"/></vehicle>
    <vehicle id="v60" type="car" depart="188.00" departLane="best" departSpeed="0"><route edges="left1A1 A1B1 B1B2 B2B3 B3top1"/></vehicle>
    <vehicle id="v61" type="car" depart="190.00" departLane="best" departSpeed="0"><route edges="bottom3D0 D0D1 D1D2 D2right2"/></vehicle>
    <vehicle id="v62" type="car" depart="190.00" departLane="best" departSpeed="0"><route edges="right2D2 D2D3 D3top3"/></vehicle>
    <vehicle id="v63" type="car" depart="191.00" departLane="best" departSpeed="0"><route edges="top0A3 A3A2 A2A1 A1left1"/></vehicle>
    <vehicle id="v64" type="car" depart="192.00" departLane="best" departSpeed="0"><route edges="bottom1B0 B0A0 A0bottom0"/></vehicle>
    <vehicle id="v65" type="car" depart="193.00" departLane="best" departSpeed="0"><route edges="bottom2C0 C0C1 C1C2 C2B2 B2A2 A2left2"/></vehicle>
    <vehicle id="v66" type="car" depart="196.00" departLane="best" departSpeed="0"><route edges="right1D1 D1C1 C1B1 B1A1 A1left1"/></vehicle>
    <vehicle id="v67" type="car" depart="196.00" departLane="best" departSpeed="0"><route edges="right3D3 D3D2 D2C2 C2C3 C3D3 D3right3"/></vehicle>
    <vehicle id="v68" type="car" depart="203.00" departLane="best" departSpeed="0"><route edges="top1B3 B3A3 A3top0"/></vehicle>
    <vehicle id="v69" type="car" depart="204.00" departLane="best" departSpeed="0"><route edges="top3D3 D3C3 C3B3 B3top1"/></vehicle>
    <vehicle id="v70" type="car" depart="208.00" departLane="best" departSpeed="0"><route edges="right0D0 D0C0 C0B0 B0B1 B1B2 B2B3 B3top1"/></vehicle>
    <vehicle id="v71" type="car" depart="208.00" departLane="best" departSpeed="0"><route edges="right3D3 D3C3 C3B3 B3A3 A3top0"/></vehicle>
    <vehicle id="v72" type="car" depart="212.00" departLane="best" departSpeed="0"><route edges="bottom1B0 B0B1 B1B2 B2C2 C2D2 D2right2"/></vehicle>
    <vehicle id="v73" type="car" depart="215.00" departLane="best" departSpeed="0"><route edges="bottom3D0 D0D1 D1D2 D2C2 C2B2 B2A2 A2left2"/></vehicle>
    <vehicle id="v74" type="car" depart="218.00" departLane="best" departSpeed="0"><route edges="right3D3 D3C3 C3B3 B3A3 A3top0"/></vehicle>
    <vehicle id="v75" type="car" depart="219.00" departLane="best" departSpeed="0"><route edges="left1A1 A1B1 B1B2 B2C2 C2D2 D2right2"/></vehicle>
    <vehicle id="v76" type="car" depart="221.00" departLane="best" departSpeed="0"><route edges="left1A1 A1B1 B1C1 C1D1 D1right1"/></vehicle>
    <vehicle id="v77" type="car" depart="224.00" departLane="best" departSpeed="0"><route edges="right3D3 D3C3 C3C2 C2C1 C1C0 C0bottom2"/></vehicle>
    <vehicle id="v78" type="car" depart="225.00" departLane="best" departSpeed="0"><route edges="bottom0A0 A0A1 A1A2 A2left2"/></vehicle>
    <vehicle id="v79" type="car" depart="225.00" departLane="best" departSpeed="0"><route edges="right0D0 D0D1 D1C1 C1B1 B1A1 A1left1"/></vehicle>
    <vehicle id="v80" type="car" depart="227.00" departLane="best" departSpeed="0"><route edges="top3D3 D3D2 D2D1 D1D0 D0bottom3"/></vehicle>
    <vehicle id="v81" type="car" depart="228.00" departLane="best" departSpeed="0"><route edges="top3D3 D3C3 C3C2 C2C1 C1C0 C0bottom2"/></vehicle>
    <vehicle id="v82" type="car" depart="232.00" departLane="best" departSpeed="0"><route edges="bottom2C0 C0C1 C1B1 B1B2 B2B3 B3top1"/></vehicle>
    <vehicle id="v83" type="car" depart="234.00" departLane="best" departSpeed="0"><route edges="left1A1 A1B1 B1B2 B2B3 B3C3 C3D3 D3right3"/></vehicle>
    <vehicle id="v84" type="car" depart="235.00" departLane="best" departSpeed="0"><route edges="bottom2C0 C0C1 C1B1 B1B2 B2B3 B3top1"/></vehicle>
    <vehicle id="v85" type="car" depart="235.00" departLane="best" departSpeed="0"><route edges="left0A0 A0A1 A1A2 A2A3 A3left3"/></vehicle>
    <vehicle id="v86" type="car" depart="236.00" departLane="best" departSpeed="0"><route edges="top3D3 D3D2 D2D1 D1D0 D0C0 C0B0 B0bottom1"/></vehicle>
    <vehicle id="v87" type="car" depart="241.00" departLane="best" departSpeed="0"><route edges="right2D2 D2C2 C2C1 C1B1 B1A1 A1left1"/></vehicle>
    <vehicle id="v88" type="car" depart="242.00" departLane="best" departSpeed="0"><route edges="bottom1B0 B0B1 B1B2 B2C2 C2D2 D2right2"/></vehicle>
    <vehicle id="v89" type="car" depart="250.00" departLane="best" departSpeed="0"><route edges="left3A3 A3top0"/></vehicle>
    <vehicle id="v90" type="car" depart="251.00" departLane="best" departSpeed="0"><route edges="right2D2 D2D3 D3top3"/></vehicle>
    <vehicle id="v91" type="car" depart="255.00" departLane="best" departSpeed="0"><route edges="left1A1 A1B1 B1B2 B2B3 B3top1"/></vehicle>
    <vehicle id="v92" type="car" depart="259.00" departLane="best" departSpeed="0"><route edges="left3A3 A3A2 A2A1 A1A0 A0bottom0"/></vehicle>
    <vehicle id="v93" type="car" depart="264.00" departLane="best" departSpeed="0"><route edges="right1D1 D1D0 D0bottom3"/></vehicle>
    <vehicle id="v94" type="car" depart="267.00" departLane="best" departSpeed="0"><route edges="bottom2C0 C0C1 C1C2 C2B2 B2A2 A2left2"/></vehicle>
    <vehicle id="v95" type="car" depart="267.00" departLane="best" departSpeed="0"><route edges="right2D2 D2C2 C2C1 C1C0 C0bottom2"/></vehicle>
    <vehicle id="v96" type="car" depart="267.00" departLane="best" departSpeed="0"><route edges="top2C3 C3B3 B3B2 B2B1 B1B0 B0bottom1"/></vehicle>
    <vehicle id="v97" type="car" depart="269.00" departLane="best" departSpeed="0"><route edges="bottom3D0 D0D1 D1C1 C1C2 C2C3 C3top2"/></vehicle>
    <vehicle id="v98" type="car" depart="274.00" departLane="best" departSpeed="0"><route edges="right1D1 D1C1 C1B1 B1A1 A1A2 A2A3 A3top0"/></vehicle>
    <vehicle id="v99" type="car" depart="275.00" departLane="best" departSpeed="0"><route edges="left3A3 A3A2 A2A1 A1left1"/></vehicle>
    <vehicle id="v100" type="car" depart="279.00" departLane="best" departSpeed="0"><route edges="right2D2 D2D3 D3right3"/></vehicle>
    <vehicle id="v101" type="car" depart="285.00" departLane="best" departSpeed="0"><route edges="bottom2C0 C0C1 C1D1 D1D0 D0C0 C0bottom2"/></vehicle>
    <vehicle id="v102" type="car" depart="293.00" departLane="best" departSpeed="0"><route edges="top0A3 A3A2 A2A1 A1left1"/></vehicle>
    <vehicle id="v103" type="car" depart="296.00" departLane="best" departSpeed="0"><route edges="right0D0 D0D1 D1D2 D2right2"/></vehicle>
    <vehicle id="v104" type="car" depart="296.00" departLane="best" departSpeed="0"><route edges="top2C3 C3C2 C2C1 C1C0 C0bottom2"/></vehicle>
    <vehicle id="v105" type="car" depart="297.00" departLane="best" departSpeed="0"><route edges="right2D2 D2C2 C2C1 C1C0 C0bottom2"/></vehicle>
    <vehicle id="v106" type="car" depart="303.00" departLane="best" departSpeed="0"><route edges="right2D2 D2C2 C2C1 C1B1 B1A1 A1left1"/></vehicle>
    <vehicle id="v107" type="car" depart="303.00" departLane="best" departSpeed="0"><route edges="top2C3 C3C2 C2C1 C1B1 B1A1 A1left1"/></vehicle>
    <vehicle id="v108" type="car" depart="305.00" departLane="best" departSpeed="0"><route edges="top2C3 C3C2 C2C1 C1C0 C0B0 B0A0 A0left0"/></vehicle>
    <vehicle id="v109" type="car" depart="306.00" departLane="best" departSpeed="0"><route edges="left2A2 A2B2 B2B1 B1B0 B0bottom1"/></vehicle>
    <vehicle id="v110" type="car" depart="307.00" departLane="best" departSpeed="0"><route edges="left1A1 A1B1 B1C1 C1D1 D1D2 D2D3 D3top3"/></vehicle>
    <vehicle id="v111" type="car" depart="316.00" departLane="best" departSpeed="0"><route edges="top0A3 A3A2 A2A1 A1B1 B1C1 C1D1 D1right1"/></vehicle>
    <vehicle id="v112" type="car" depart="317.00" departLane="best" departSpeed="0"><route edges="left2A2 A2A1 A1left1"/></vehicle>
    <vehicle id="v113" type="car" depart="321.00" departLane="best" departSpeed="0"><route edges="top3D3 D3D2 D2D1 D1D0 D0C0 C0B0 B0A0 A0bottom0"/></vehicle>
    <vehicle id="v114" type="car" depart="323.00" departLane="best" departSpeed="0"><route edges="top0A3 A3A2 A2B2 B2B1 B1B0 B0bottom1"/></vehicle>
    <vehicle id="v115" type="car" depart="323.00" departLane="best" departSpeed="0"><route edges="top3D3 D3D2 D2D1 D1C1 C1B1 B1A1 A1left1"/></vehicle>
    <vehicle id="v116" type="car" depart="326.00" departLane="best" departSpeed="0"><route edges="left1A1 A1B1 B1C1 C1C0 C0bottom2"/></vehicle>
    <vehicle id="v117" type="car" depart="330.00" departLane="best" departSpeed="0"><route edges="top3D3 D3D2 D2C2 C2B2 B2A2 A2left2"/></vehicle>
    <vehicle id="v118" type="car" depart="331.00" departLane="best" departSpeed="0"><route edges="bottom0A0 A0A1 A1A2 A2A3 A3B3 B3C3 C3top2"/></vehicle>
    <vehicle id="v119" type="car" depart="337.00" departLane="best" departSpeed="0"><route edges="bottom0A0 A0A1 A1A2 A2A3 A3left3"/></vehicle>
    <vehicle id="v120" type="car" depart="337.00" departLane="best" departSpeed="0"><route edges="bottom3D0 D0C0 C0B0 B0A0 A0bottom0"/></vehicle>
    <vehicle id="v121" type="car" depart="340.00" departLane="best" departSpeed="0"><route edges="bottom1B0 B0B1 B1B2 B2B3 B3C3 C3D3 D3top3"/></vehicle>
    <vehicle id="v122" type="car" depart="345.00" departLane="best" departSpeed="0"><route edges="left2A2 A2A3 A3left3"/></vehicle>
    <vehicle id="v123" type="car" depart="346.00" departLane="best" departSpeed="0"><route edges="left3A3 A3B3 B3C3 C3D3 D3top3"/></vehicle>
    <vehicle id="v124" type="car" depart="348.00" departLane="best" departSpeed="0"><route edges="bottom3D0 D0C0 C0B0 B0bottom1"/></vehicle>
    <vehicle id="v125" type="car" depart="353.00" departLane="best" departSpeed="0"><route edges="right3D3 D3C3 C3B3 B3A3 A3left3"/></vehicle>
    <vehicle id="v126" type="car" depart="353.00" departLane="best" departSpeed="0"><route edges="top2C3 C3B3 B3A3 A3top0"/></vehicle>
    <vehicle id="v127" type="car" depart="356.00" departLane="best" departSpeed="0"><route edges="top1B3 B3A3 A3A2 A2A1 A1A0 A0bottom0"/></vehicle>
    <vehicle id="v128" type="car" depart="359.00" departLane="best" departSpeed="0"><route edges="right2D2 D2D1 D1D0 D0right0"/></vehicle>
    <vehicle id="v129" type="car" depart="360.00" departLane="best" departSpeed="0"><route edges="right3D3 D3C3 C3top2"/></vehicle>
    <vehicle id="v130" type="car" depart="363.00" departLane="best" departSpeed="0"><route edges="bottom0A0 A0A1 A1A2 A2A3 A3B3 B3C3 C3D3 D3top3"/></vehicle>
    <vehicle id="v131" type="car" depart="365.00" departLane="best" departSpeed="0"><route edges="top0A3 A3A2 A2B2 B2C2 C2C1 C1C0 C0bottom2"/></vehicle>
    <vehicle id="v132" type="car" depart="367.00" departLane="best" departSpeed="0"><route edges="left1A1 A1A2 A2A3 A3top0"/></vehicle>
    <vehicle id="v133" type="car" depart="370.00" departLane="best" departSpeed="0"><route edges="right0D0 D0C0 C0B0 B0A0 A0A1 A1A2 A2A3 A3left3"/></vehicle>
    <vehicle id="v134" type="car" depart="370.00" departLane="best" departSpeed="0"><route edges="right1D1 D1D0 D0bottom3"/></vehicle>
    <vehicle id="v135" type="car" depart="370.00" departLane="best" departSpeed="0"><route edges="top2C3 C3C2 C2C1 C1C0 C0D0 D0right0"/></vehicle>
    <vehicle id="v136" type="car" depart="375.00" departLane="best" departSpeed="0"><route edges="top1B3 B3B2 B2B1 B1B0 B0A0 A0left0"/></vehicle>
    <vehicle id="v137" type="car" depart="377.00" departLane="best" departSpeed="0"><route edges="right2D2 D2C2 C2B2 B2B1 B1B0 B0bottom1"/></vehicle>
    <vehicle id="v138" type="car" depart="381.00" departLane="best" departSpeed="0"><route edges="bottom1B0 B0A0 A0left0"/></vehicle>
    <vehicle id="v139" type="car" depart="382.00" departLane="best" departSpeed="0"><route edges="bottom3D0 D0C0 C0C1 C1D1 D1D0 D0bottom3"/></vehicle>
    <vehicle id="v140" type="car" depart="383.00" departLane="best" departSpeed="0"><route edges="right0D0 D0C0 C0B0 B0A0 A0left0"/></vehicle>
    <vehicle id="v141" type="car" depart="395.00" departLane="best" departSpeed="0"><route edges="left3A3 A3A2 A2B2 B2C2 C2D2 D2right2"/></vehicle>
    <vehicle id="v142" type="car" depart="401.00" departLane="best" departSpeed="0"><route edges="left3A3 A3B3 B3C3 C3D3 D3right3"/></vehicle>
    <vehicle id="v143" type="car" depart="402.00" departLane="best" departSpeed="0"><route edges="right1D1 D1D2 D2D3 D3top3"/></vehicle>
    <vehicle id="v144" type="car" depart="404.00" departLane="best" departSpeed="0"><route edges="right2D2 D2C2 C2C3 C3D3 D3D2 D2right2"/></vehicle>
    <vehicle id="v145" type="car" depart="404.00" departLane="best" departSpeed="0"><route edges="top0A3 A3A2 A2left2"/></vehicle>
    <vehicle id="v146" type="car" depart="406.00" departLane="best" departSpeed="0"><route edges="top2C3 C3C2 C2C1 C1C0 C0bottom2"/></vehicle>
    <vehicle id="v147" type="car" depart="409.00" departLane="best" departSpeed="0"><route edges="top3D3 D3C3 C3B3 B3A3 A3left3"/></vehicle>
    <vehicle id="v148" type="car" depart="412.00" departLane="best" departSpeed="0"><route edges="bottom1B0 B0B1 B1B2 B2B3 B3C3 C3D3 D3right3"/></vehicle>
    <vehicle id="v149" type="car" depart="412.00" departLane="best" departSpeed="0"><route edges="left1A1 A1B1 B1C1 C1C2 C2C3 C3top2"/></vehicle>
    <vehicle id="v150" type="car" depart="416.00" departLane="best" departSpeed="0"><route edges="left1A1 A1A0 A0left0"/></vehicle>
    <vehicle id="v151" type="car" depart="417.00" departLane="best" departSpeed="0"><route edges="bottom3D0 D0D1 D1D2 D2C2 C2B2 B2A2 A2left2"/></vehicle>
    <vehicle id="v152" type="car" depart="418.00" departLane="best" departSpeed="0"><route edges="bottom3D0 D0D1 D1C1 C1B1 B1A1 A1left1"/></vehicle>
    <vehicle id="v153" type="car" depart="428.00" departLane="best" departSpeed="0"><route edges="bottom3D0 D0D1 D1D2 D2D3 D3top3"/></vehicle>
    <vehicle id="v154" type="car" depart="431.00" departLane="best" departSpeed="0"><route edges="top2C3 C3C2 C2C1 C1C0 C0bottom2"/></vehicle>
    <vehicle id="v155" type="car" depart="440.00" departLane="best" departSpeed="0"><route edges="bottom0A0 A0A1 A1A2 A2A3 A3B3 B3C3 C3D3 D3top3"/></vehicle>
    <vehicle id="v156" type="car" depart="442.00" departLane="best" departSpeed="0"><route edges="left1A1 A1B1 B1C1 C1D1 D1D2 D2D3 D3top3"/></vehicle>
    <vehicle id="v157" type="car" depart="445.00" departLane="best" departSpeed="0"><route edges="bottom2C0 C0B0 B0A0 A0bottom0"/></vehicle>
    <vehicle id="v158" type="car" depart="453.00" departLane="best" departSpeed="0"><route edges="bottom2C0 C0B0 B0A0 A0left0"/></vehicle>
    <vehicle id="v159" type="car" depart="458.00" departLane="best" departSpeed="0"><route edges="bottom0A0 A0B0 B0bottom1"/></vehicle>
    <vehicle id="v160" type="car" depart="460.00" departLane="best" departSpeed="0"><route edges="bottom2C0 C0D0 D0D1 D1D2 D2D3 D3top3"/></vehicle>
    <vehicle id="v161" type="car" depart="465.00" departLane="best" departSpeed="0"><route edges="right1D1 D1D0 D0bottom3"/></vehicle>
    <vehicle id="v162" type="car" depart="468.00" departLane="best" departSpeed="0"><route edges="left1A1 A1A0 A0B0 B0C0 C0D0 D0right0"/></vehicle>
    <vehicle id="v163" type="car" depart="469.00" departLane="best" departSpeed="0"><route edges="left3A3 A3B3 B3C3 C3D3 D3D2 D2D1 D1D0 D0right0"/></vehicle>
    <vehicle id="v164" type="car" depart="471.00" departLane="best" departSpeed="0"><route edges="top2C3 C3B3 B3A3 A3top0"/></vehicle>
    <vehicle id="v165" type="car" depart="472.00" departLane="best" departSpeed="0"><route edges="top2C3 C3C2 C2C1 C1C0 C0D0 D0right0"/></vehicle>
    <vehicle id="v166" type="car" depart="477.00" departLane="best" departSpeed="0"><route edges="right1D1 D1C1 C1B1 B1A1 A1A2 A2A3 A3top0"/></vehicle>
    <vehicle id="v167" type="car" depart="480.00" departLane="best" departSpeed="0"><route edges="right1D1 D1C1 C1B1 B1A1 A1left1"/></vehicle>
    <vehicle id="v168" type="car" depart="481.00" departLane="best" departSpeed="0"><route edges="right3D3 D3C3 C3C2 C2C1 C1C0 C0bottom2"/></vehicle>
    <vehicle id="v169" type="car" depart="486.00" departLane="best" departSpeed="0"><route edges="right3D3 D3D2 D2D1 D1D0 D0right0"/></vehicle>
    <vehicle id="v170" type="car" depart="490.00" departLane="best" departSpeed="0"><route edges="bottom3D0 D0D1 D1C1 C1B1 B1A1 A1left1"/></vehicle>
    <vehicle id="v171" type="car" depart="490.00" departLane="best" departSpeed="0"><route edges="right1D1 D1D0 D0bottom3"/></vehicle>
    <vehicle id="v172" type="car" depart="491.00" departLane="best" departSpeed="0"><route edges="bottom3D0 D0D1 D1D2 D2D3 D3C3 C3B3 B3A3 A3left3"/></vehicle>
    <vehicle id="v173" type="car" depart="492.00" departLane="best" departSpeed="0"><route edges="top0A3 A3B3 B3C3 C3top2"/></vehicle>
    <vehicle id="v174" type="car" depart="493.00" departLane="best" departSpeed="0"><route edges="bottom0A0 A0A1 A1B1 B1B0 B0A0 A0bottom0"/></vehicle>
    <vehicle id="v175" type="car" depart="495.00" departLane="best" departSpeed="0"><route edges="left1A1 A1A0 A0left0"/></vehicle>
    <vehicle id="v176" type="car" depart="504.00" departLane="best" departSpeed="0"><route edges="top2C3 C3C2 C2B2 B2B3 B3C3 C3top2"/></vehicle>
    <vehicle id="v177" type="car" depart="508.00" departLane="best" departSpeed="0"><route edges="bottom3D0 D0D1 D1C1 C1B1 B1B2 B2B3 B3top1"/></vehicle>
    <vehicle id="v178" type="car" depart="509.00" departLane="best" departSpeed="0"><route edges="left2A2 A2B2 B2B3 B3C3 C3D3 D3right3"/></vehicle>
    <vehicle id="v179" type="car" depart="510.00" departLane="best" departSpeed="0"><route edges="left1A1 A1A2 A2A3 A3top0"/></vehicle>
    <vehicle id="v180" type="car" depart="512.00" departLane="best" departSpeed="0"><route edges="bottom0A0 A0A1 A1A2 A2A3 A3top0"/></vehicle>
    <vehicle id="v181" type="car" depart="516.00" departLane="best" departSpeed="0"><route edges="left1A1 A1A2 A2left2"/></vehicle>
    <vehicle id="v182" type="car" depart="520.00" departLane="best" departSpeed="0"><route edges="left3A3 A3B3 B3C3 C3D3 D3right3"/></vehicle>
    <vehicle id="v183" type="car" depart="522.00" departLane="best" departSpeed="0"><route edges="right0D0 D0C0 C0bottom2"/></vehicle>
    <vehicle id="v184" type="car" depart="527.00" departLane="best" departSpeed="0"><route edges="left1A1 A1A0 A0left0"/></vehicle>
    <vehicle id="v185" type="car" depart="528.00" departLane="best" departSpeed="0"><route edges="top2C3 C3C2 C2B2 B2A2 A2left2"/></vehicle>
    <vehicle id="v186" type="car" depart="529.00" departLane="best" departSpeed="0"><route edges="top2C3 C3C2 C2B2 B2B3 B3C3 C3top2"/></vehicle>
    <vehicle id="v187" type="car" depart="534.00" departLane="best" departSpeed="0"><route edges="top1B3 B3B2 B2A2 A2A3 A3B3 B3top1"/></vehicle>
    <vehicle id="v188" type="car" depart="535.00" departLane="best" departSpeed="0"><route edges="bottom0A0 A0A1 A1A2 A2A3 A3B3 B3C3 C3D3 D3right3"/></vehicle>
    <vehicle id="v189" type="car" depart="537.00" departLane="best" departSpeed="0"><route edges="top0A3 A3A2 A2B2 B2C2 C2C1 C1C0 C0bottom2"/></vehicle>
    <vehicle id="v190" type="car" depart="540.00" departLane="best" departSpeed="0"><route edges="right3D3 D3C3 C3B3 B3A3 A3left3"/></vehicle>
    <vehicle id="v191" type="car" depart="542.00" departLane="best" departSpeed="0"><route edges="left2A2 A2A1 A1B1 B1C1 C1D1 D1right1"/></vehicle>
    <vehicle id="v192" type="car" depart="544.00" departLane="best" departSpeed="0"><route edges="top2C3 C3C2 C2D2 D2right2"/></vehicle>
    <vehicle id="v193" type="car" depart="545.00" departLane="best" departSpeed="0"><route edges="bottom0A0 A0B0 B0bottom1"/></vehicle>
    <vehicle id="v194" type="car" depart="545.00" departLane="best" departSpeed="0"><route edges="right3D3 D3D2 D2D1 D1right1"/></vehicle>
    <vehicle id="v195" type="car" depart="545.00" departLane="best" departSpeed="0"><route edges="top3D3 D3C3 C3B3 B3A3 A3left3"/></vehicle>
    <vehicle id="v196" type="car" depart="547.00" departLane="best" departSpeed="0"><route edges="right3D3 D3C3 C3B3 B3top1"/></vehicle>
    <vehicle id="v197" type="car" depart="547.00" departLane="best" departSpeed="0"><route edges="top3D3 D3C3 C3B3 B3A3 A3left3"/></vehicle>
    <vehicle id="v198" type="car" depart="548.00" departLane="best" departSpeed="0"><route edges="right0D0 D0D1 D1D2 D2D3 D3right3"/></vehicle>
    <vehicle id="v199" type="car" depart="550.00" departLane="best" departSpeed="0"><route edges="bottom2C0 C0C1 C1C2 C2D2 D2right2"/></vehicle>
    <vehicle id="v200" type="car" depart="551.00" departLane="best" departSpeed="0"><route edges="bottom3D0 D0D1 D1D2 D2right2"/></vehicle>
    <vehicle id="v201" type="car" depart="552.00" departLane="best" departSpeed="0"><route edges="bottom2C0 C0C1 C1C2 C2C3 C3D3 D3right3"/></vehicle>
    <vehicle id="v202" type="car" depart="557.00" departLane="best" departSpeed="0"><route edges="right1D1 D1C1 C1B1 B1B0 B0bottom1"/></vehicle>
    <vehicle id="v203" type="car" depart="557.00" departLane="best" departSpeed="0"><route edges="top1B3 B3C3 C3top2"/></vehicle>
    <vehicle id="v204" type="car" depart="563.00" departLane="best" departSpeed="0"><route edges="right2D2 D2D3 D3C3 C3B3 B3A3 A3left3"/></vehicle>
    <vehicle id="v205" type="car" depart="566.00" departLane="best" departSpeed="0"><route edges="top0A3 A3A2 A2B2 B2C2 C2D2 D2D1 D1D0 D0bottom3"/></vehicle>
    <vehicle id="v206" type="car" depart="576.00" departLane="best" departSpeed="0"><route edges="bottom1B0 B0B1 B1B2 B2B3 B3top1"/></vehicle>