<?xml version="1.0" encoding="utf-8"?>
<routes>
    <vType id="car" length="5.0" width="2.0" minGap="2.5" maxSpeed="11.111" accel="2.0" decel="4.5" color="0.8,0.8,0.8"/>
    <vehicle id="v0" type="car" depart="1.00" departLane="best" departSpeed="0"><route edges="left0A0 A0A1 A1B1 B1B0 B0A0 A0left0"/></vehicle>
    <vehicle id="v1" type="car" depart="1.00" departLane="best" departSpeed="0"><route edges="right3D3 D3top3"/></vehicle>
    <vehicle id="v2" type="car" depart="6.00" departLane="best" departSpeed="0"><route edges="left3A3 A3B3 B3C3 C3top2"/></vehicle>
    <vehicle id="v3" type="car" depart="10.00" departLane="best" departSpeed="0"><route edges="left0A0 A0B0 B0C0 C0bottom2"/></vehicle>
    <vehicle id="v4" type="car" depart="11.00" departLane="best" departSpeed="0"><route edges="right0D0 D0C0 C0B0 B0A0 A0A1 A1A2 A2A3 A3top0"/></vehicle>
    <vehicle id="v5" type="car" depart="12.00" departLane="best" departSpeed="0"><route edges="left3A3 A3top0"/></vehicle>
    <vehicle id="v6" type="car" depart="13.00" departLane="best" departSpeed="0"><route edges="top2C3 C3C2 C2D2 D2D1 D1D0 D0bottom3"/></vehicle>
    <vehicle id="v7" type="car" depart="15.00" departLane="best" departSpeed="0"><route edges="top2C3 C3C2 C2C1 C1D1 D1right1"/></vehicle>
    <vehicle id="v8" type="car" depart="17.00" departLane="best" departSpeed="0"><route edges="left0A0 A0B0 B0bottom1"/></vehicle>
    <vehicle id="v9" type="car" depart="18.00" departLane="best" departSpeed="0"><route edges="right3D3 D3D2 D2D1 D1D0 D0bottom3"/></vehicle>
    <vehicle id="v10" type="car" depart="19.00" departLane="best" departSpeed="0"><route edges="right3D3 D3top3"/></vehicle>
    <vehicle id="v11" type="car" depart="20.00" departLane="best" departSpeed="0"><route edges="bottom2C0 C0C1 C1B1 B1B2 B2B3 B3top1"/></vehicle>
    <vehicle id="v12" type="car" depart="23.00" departLane="best" departSpeed="0"><route edges="left2A2 A2A3 A3top0"/></vehicle>
    <vehicle id="v13" type="car" depart="27.00" departLane="best" departSpeed="0"><route edges="right2D2 D2C2 C2B2 B2A2 A2A1 A1A0 A0bottom0"/></vehicle>
    <vehicle id="v14" type="car" depart="28.00" departLane="best" departSpeed="0"><route edges="left0A0 A0B0 B0B1 B1C1 C1D1 D1right1"/></vehicle>
    <vehicle id="v15" type="car" depart="28.00" departLane="best" departSpeed="0"><route edges="right3D3 D3C3 C3C2 C2B2 B2A2 A2left2"/></vehicle>
    <vehicle id="v16" type="car" depart="29.00" departLane="best" departSpeed="0"><route edges="bottom0A0 A0B0 B0C0 C0D0 D0right0"/></vehicle>
    <vehicle id="v17" type="car" depart="32.00" departLane="best" departSpeed="0"><route edges="top3D3 D3C3 C3B3 B3A3 A3left3"/></vehicle>
    <vehicle id="v18" type="car" depart="33.00" departLane="best" departSpeed="0"><route edges="bottom2C0 C0C1 C1C2 C2C3 C3top2"/></vehicle>
    <vehicle id="v19" type="car" depart="33.00" departLane="best" departSpeed="0"><route edges="left3A3 A3B3 B3C3 C3D3 D3top3"/></vehicle>
    <vehicle id="v20" type="car" depart="33.00" departLane="best" departSpeed="0"><route edges="right2D2 D2C2 C2C1 C1B1 B1A1 A1left1"/></vehicle>
    <vehicle id="v21" type="car" depart="36.00" departLane="best" departSpeed="0"><route edges="left2A2 A2B2 B2C2 C2D2 D2right2"/></vehicle>
    <vehicle id="v22" type="car" depart="37.00" departLane="best" departSpeed="0"><route edges="top1B3 B3B2 B2B1 B1C1 C1D1 D1right1"/></vehicle>
    <vehicle id="v23" type="car" depart="38.00" departLane="best" departSpeed="0"><route edges="right1D1 D1C1 C1B1 B1B0 B0bottom1"/></vehicle>
    <vehicle id="v24" type="car" depart="39.00" departLane="best" departSpeed="0"><route edges="left3A3 A3B3 B3top1"/></vehicle>
    <vehicle id="v25" type="car" depart="39.00" departLane="best" departSpeed="0"><route edges="top1B3 B3A3 A3top0"/></vehicle>
    <vehicle id="v26" type="car" depart="40.00" departLane="best" departSpeed="0"><route edges="top3D3 D3D2 D2D1 D1C1 C1B1 B1A1 A1left1"/></vehicle>
    <vehicle id="v27" type="car" depart="42.00" departLane="best" departSpeed="0"><route edges="top2C3 C3D3 D3right3"/></vehicle>
    <vehicle id="v28" type="car" depart="45.00" departLane="best" departSpeed="0"><route edges="bottom0A0 A0B0 B0C0 C0D0 D0right0"/></vehicle>
    <vehicle id="v29" type="car" depart="47.00" departLane="best" departSpeed="0"><route edges="bottom2C0 C0C1 C1B1 B1A1 A1A2 A2A3 A3top0"/></vehicle>
    <vehicle id="v30" type="car" depart="47.00" departLane="best" departSpeed="0"><route edges="left3A3 A3A2 A2B2 B2C2 C2D2 D2right2"/></vehicle>
    <vehicle id="v31" type="car" depart="50.00" departLane="best" departSpeed="0"><route edges="left3A3 A3B3 B3C3 C3D3 D3right3"/></vehicle>
    <vehicle id="v32" type="car" depart="50.00" departLane="best" departSpeed="0"><route edges="top1B3 B3C3 C3D3 D3right3"/></vehicle>
    <vehicle id="v33" type="car" depart="51.00" departLane="best" departSpeed="0"><route edges="left1A1 A1A2 A2A3 A3top0"/></vehicle>
    <vehicle id="v34" type="car" depart="51.00" departLane="best" departSpeed="0"><route edges="right1D1 D1D2 D2D3 D3right3"/></vehicle>
    <vehicle id="v35" type="car" depart="54.00" departLane="best" departSpeed="0"><route edges="left3A3 A3B3 B3C3 C3D3 D3top3"/></vehicle>
    <vehicle id="v36" type="car" depart="58.00" departLane="best" departSpeed="0"><route edges="bottom3D0 D0D1 D1D2 D2D3 D3right3"/></vehicle>
    <vehicle id="v37" type="car" depart="62.00" departLane="best" departSpeed="0"><route edges="left1A1 A1A2 A2A3 A3left3"/></vehicle>
    <vehicle id="v38" type="car" depart="64.00" departLane="best" departSpeed="0"><route edges="bottom1B0 B0B1 B1B2 B2A2 A2left2"/></vehicle>
    <vehicle id="v39" type="car" depart="64.00" departLane="best" departSpeed="0"><route edges="left0A0 A0A1 A1B1 B1B0 B0A0 A0left0"/></vehicle>
    <vehicle id="v40" type="car" depart="65.00" departLane="best" departSpeed="0"><route edges="top1B3 B3B2 B2A2 A2A3 A3B3 B3top1"/></vehicle>
    <vehicle id="v41" type="car" depart="70.00" departLane="best" departSpeed="0"><route edges="left0A0 A0B0 B0B1 B1B2 B2B3 B3C3 C3D3 D3right3"/></vehicle>
    <vehicle id="v42" type="car" depart="72.00" departLane="best" departSpeed="0"><route edges="left1A1 A1B1 B1C1 C1C0 C0bottom2"/></vehicle>
    <vehicle id="v43" type="car" depart="73.00" departLane="best" departSpeed="0"><route edges="bottom3D0 D0C0 C0bottom2"/></vehicle>
    <vehicle id="v44" type="car" depart="76.00" departLane="best" departSpeed="0"><route edges="right0D0 D0C0 C0B0 B0A0 A0left0"/></vehicle>
    <vehicle id="v45" type="car" depart="76.00" departLane="best" departSpeed="0"><route edges="top0A3 A3A2 A2A1 A1A0 A0bottom0"/></vehicle>
    <vehicle id="v46" type="car" depart="78.00" departLane="best" departSpeed="0"><route edges="bottom1B0 B0B1 B1B2 B2A2 A2left2"/></vehicle>
    <vehicle id="v47" type="car" depart="78.00" departLane="best" departSpeed="0"><route edges="right0D0 D0C0 C0B0 B0A0 A0A1 A1A2 A2left2"/></vehicle>
    <vehicle id="v48" type="car" depart="80.00" departLane="best" departSpeed="0"><route edges="bottom0A0 A0A1 A1A2 A2A3 A3top0"/></vehicle>
    <vehicle id="v49" type="car" depart="83.00" departLane="best" departSpeed="0"><route edges="left3A3 A3A2 A2left2"/></vehicle>
    <vehicle id="v50" type="car" depart="84.00" departLane="best" departSpeed="0"><route edges="right3D3 D3C3 C3C2 C2B2 B2A2 A2left2"/></vehicle>
    <vehicle id="v51" type="car" depart="86.00" departLane="best" departSpeed="0"><route edges="left2A2 A2B2 B2B1 B1B0 B0bottom1"/></vehicle>
    <vehicle id="v52" type="car" depart="87.00" departLane="best" departSpeed="0"><route edges="bottom3D0 D0D1 D1D2 D2D3 D3C3 C3B3 B3A3 A3left3"/></vehicle>
    <vehicle id="v53" type="car" depart="87.00" departLane="best" departSpeed="0"><route edges="left1A1 A1B1 B1C1 C1C0 C0bottom2"/></vehicle>
    <vehicle id="v54" type="car" depart="87.00" departLane="best" departSpeed="0"><route edges="top1B3 B3A3 A3A2 A2A1 A1A0 A0bottom0"/></vehicle>
    <vehicle id="v55" type="car" depart="88.00" departLane="best" departSpeed="0"><route edges="top3D3 D3D2 D2C2 C2C3 C3D3 D3top3"/></vehicle>
    <vehicle id="v56" type="car" depart="91.00" departLane="best" departSpeed="0"><route edges="left1A1 A1B1 B1C1 C1C0 C0bottom2"/></vehicle>
    <vehicle id="v57" type="car" depart="91.00" departLane="best" departSpeed="0"><route edges="left3A3 A3B3 B3C3 C3top2"/></vehicle>
    <vehicle id="v58" type="car" depart="91.00" departLane="best" departSpeed="0"><route edges="top1B3 B3C3 C3D3 D3right3"/></vehicle>
    <vehicle id="v59" type="car" depart="92.00" departLane="best" departSpeed="0"><route edges="left2A2 A2B2 B2C2 C2C1 C1C0 C0bottom2"/></vehicle>
    <vehicle id="v60" type="car" depart="93.00" departLane="best" departSpeed="0"><route edges="bottom3D0 D0D1 D1D2 D2C2 C2B2 B2A2 A2left2"/></vehicle>
    <vehicle id="v61" type="car" depart="93.00" departLane="best" departSpeed="0"><route edges="top2C3 C3C2 C2B2 B2B3 B3C3 C3top2"/></vehicle>
    <vehicle id="v62" type="car" depart="94.00" departLane="best" departSpeed="0"><route edges="right2D2 D2D3 D3right3"/></vehicle>
    <vehicle id="v63" type="car" depart="95.00" departLane="best" departSpeed="0"><route edges="left1A1 A1A0 A0bottom0"/></vehicle>
    <vehicle id="v64" type="car" depart="95.00" departLane="best" departSpeed="0"><route edges="left2A2 A2B2 B2C2 C2C1 C1C0 C0bottom2"/></vehicle>
    <vehicle id="v65" type="car" depart="98.00" departLane="best" departSpeed="0"><route edges="bottom3D0 D0D1 D1right1"/></vehicle>
    <vehicle id="v66" type="car" depart="99.00" departLane="best" departSpeed="0"><route edges="right2D2 D2D3 D3C3 C3B3 B3A3 A3left3"/></vehicle>
    <vehicle id="v67" type="car" depart="99.00" departLane="best" departSpeed="0"><route edges="top3D3 D3D2 D2D1 D1D0 D0C0 C0B0 B0A0 A0left0"/></vehicle>
    <vehicle id="v68" type="car" depart="100.00" departLane="best" departSpeed="0"><route edges="bottom2C0 C0C1 C1C2 C2C3 C3D3 D3right3"/></vehicle>
    <vehicle id="v69" type="car" depart="101.00" departLane="best" departSpeed="0"><route edges="bottom1B0 B0B1 B1B2 B2C2 C2D2 D2right2"/></vehicle>
    <vehicle id="v70" type="car" depart="101.00" departLane="best" departSpeed="0"><route edges="right3D3 D3D2 D2D1 D1D0 D0bottom3"/></vehicle>
    <vehicle id="v71" type="car" depart="102.00" departLane="best" departSpeed="0"><route edges="right3D3 D3C3 C3B3 B3A3 A3left3"/></vehicle>
    <vehicle id="v72" type="car" depart="103.00" departLane="best" departSpeed="0"><route edges="left2A2 A2B2 B2B3 B3C3 C3D3 D3right3"/></vehicle>
    <vehicle id="v73" type="car" depart="105.00" departLane="best" departSpeed="0"><route edges="bottom3D0 D0D1 D1D2 D2D3 D3top3"/></vehicle>
    <vehicle id="v74" type="car" depart="108.00" departLane="best" departSpeed="0"><route edges="right3D3 D3C3 C3B3 B3A3 A3A2 A2A1 A1A0 A0bottom0"/></vehicle>
    <vehicle id="v75" type="car" depart="110.00" departLane="best" departSpeed="0"><route edges="right2D2 D2D3 D3C3 C3B3 B3A3 A3left3"/></vehicle>
    <vehicle id="v76" type="car" depart="110.00" departLane="best" departSpeed="0"><route edges="top2C3 C3B3 B3B2 B2B1 B1B0 B0bottom1"/></vehicle>
    <vehicle id="v77" type="car" depart="113.00" departLane="best" departSpeed="0"><route edges="bottom3D0 D0D1 D1D2 D2D3 D3top3"/></vehicle>
    <vehicle id="v78" type="car" depart="115.00" departLane="best" departSpeed="0"><route edges="left1A1 A1B1 B1C1 C1D1 D1right1"/></vehicle>
    <vehicle id="v79" type="car" depart="115.00" departLane="best" departSpeed="0"><route edges="right1D1 D1D2 D2D3 D3right3"/></vehicle>
    <vehicle id="v80" type="car" depart="118.00" departLane="best" departSpeed="0"><route edges="bottom3D0 D0D1 D1D2 D2D3 D3C3 C3B3 B3A3 A3left3"/></vehicle>
    <vehicle id="v81" type="car" depart="118.00" departLane="best" departSpeed="0"><route edges="left3A3 A3top0"/></vehicle>
    <vehicle id="v82" type="car" depart="118.00" departLane="best" departSpeed="0"><route edges="top1B3 B3B2 B2C2 C2D2 D2right2"/></vehicle>
    <vehicle id="v83" type="car" depart="120.00" departLane="best" departSpeed="0"><route edges="bottom2C0 C0C1 C1B1 B1A1 A1left1"/></vehicle>
    <vehicle id="v84" type="car" depart="120.00" departLane="best" departSpeed="0"><route edges="left2A2 A2A1 A1B1 B1C1 C1D1 D1right1"/></vehicle>
    <vehicle id="v85" type="car" depart="120.00" departLane="best" departSpeed="0"><route edges="left3A3 A3B3 B3C3 C3D3 D3D2 D2D1 D1D0 D0right0"/></vehicle>
    <vehicle id="v86" type="car" depart="121.00" departLane="best" departSpeed="0"><route edges="top3D3 D3D2 D2D1 D1D0 D0C0 C0B0 B0bottom1"/></vehicle>
    <vehicle id="v87" type="car" depart="126.00" departLane="best" departSpeed="0"><route edges="bottom0A0 A0B0 B0bottom1"/></vehicle>
    <vehicle id="v88" type="car" depart="126.00" departLane="best" departSpeed="0"><route edges="top2C3 C3C2 C2D2 D2D1 D1D0 D0bottom3"/></vehicle>
    <vehicle id="v89" type="car" depart="128.00" departLane="best" departSpeed="0"><route edges="bottom1B0 B0B1 B1B2 B2C2 C2D2 D2right2"/></vehicle>
    <vehicle id="v90" type="car" depart="128.00" departLane="best" departSpeed="0"><route edges="right3D3 D3C3 C3B3 B3A3 A3A2 A2A1 A1A0 A0bottom0"/></vehicle>
    <vehicle id="v91" type="car" depart="129.00" departLane="best" departSpeed="0"><route edges="bottom0A0 A0A1 A1A2 A2A3 A3top0"/></vehicle>
    <vehicle id="v92" type="car" depart="129.00" departLane="best" departSpeed="0"><route edges="right0D0 D0C0 C0B0 B0B1 B1B2 B2B3 B3top1"/></vehicle>
    <vehicle id="v93" type="car" depart="132.00" departLane="best" departSpeed="0"><route edges="right0D0 D0C0 C0C1 C1D1 D1D0 D0right0"/></vehicle>
    <vehicle id="v94" type="car" depart="132.00" departLane="best" departSpeed="0"><route edges="right2D2 D2D1 D1right1"/></vehicle>
    <vehicle id="v95" type="car" depart="132.00" departLane="best" departSpeed="0"><route edges="right3D3 D3D2 D2D1 D1D0 D0right0"/></vehicle>
    <vehicle id="v96" type="car" depart="133.00" departLane="best" departSpeed="0"><route edges="left1A1 A1A0 A0left0"/></vehicle>
    <vehicle id="v97" type="car" depart="135.00" departLane="best" departSpeed="0"><route edges="bottom2C0 C0C1 C1C2 C2B2 B2A2 A2left2"/></vehicle>
    <vehicle id="v98" type="car" depart="137.00" departLane="best" departSpeed="0"><route edges="left3A3 A3B3 B3C3 C3D3 D3D2 D2D1 D1right1"/></vehicle>
    <vehicle id="v99" type="car" depart="137.00" departLane="best" departSpeed="0"><route edges="right1D1 D1C1 C1B1 B1A1 A1left1"/></vehicle>
    <vehicle id="v100" type="car" depart="138.00" departLane="best" departSpeed="0"><route edges="bottom0A0 A0B0 B0C0 C0D0 D0right0"/></vehicle>
    <vehicle id="v101" type="car" depart="138.00" departLane="best" departSpeed="0"><route edges="bottom2C0 C0C1 C1C2 C2C3 C3top2"/></vehicle>
    <vehicle id="v102" type="car" depart="141.00" departLane="best" departSpeed="0"><route edges="top1B3 B3B2 B2C2 C2D2 D2right2"/></vehicle>
    <vehicle id="v103" type="car" depart="142.00" departLane="best" departSpeed="0"><route edges="top1B3 B3C3 C3top2"/></vehicle>
    <vehicle id="v104" type="car" depart="143.00" departLane="best" departSpeed="0"><route edges="right2D2 D2C2 C2B2 B2A2 A2A3 A3top0"/></vehicle>
    <vehicle id="v105" type="car" depart="146.00" departLane="best" departSpeed="0"><route edges="right1D1 D1C1 C1B1 B1A1 A1A2 A2A3 A3top0"/></vehicle>
    <vehicle id="v106" type="car" depart="147.00" departLane="best" departSpeed="0"><route edges="top1B3 B3A3 A3top0"/></vehicle>
    <vehicle id="v107" type="car" depart="149.00" departLane="best" departSpeed="0"><route edges="left3A3 A3A2 A2A1 A1A0 A0left0"/></vehicle>
    <vehicle id="v108" type="car" depart="149.00" departLane="best" departSpeed="0"><route edges="top2C3 C3B3 B3B2 B2B1 B1B0 B0bottom1"/></vehicle>
    <vehicle id="v109" type="car" depart="151.00" departLane="best" departSpeed="0"><route edges="bottom1B0 B0C0 C0D0 D0bottom3"/></vehicle>
    <vehicle id="v110" type="car" depart="151.00" departLane="best" departSpeed="0"><route edges="bottom2C0 C0C1 C1B1 B1B2 B2B3 B3top1"/></vehicle>
    <vehicle id="v111" type="car" depart="151.00" departLane="best" departSpeed="0"><route edges="top1B3 B3A3 A3left3"/></vehicle>
    <vehicle id="v112" type="car" depart="153.00" departLane="best" departSpeed="0"><route edges="bottom1B0 B0B1 B1B2 B2C2 C2D2 D2right2"/></vehicle>
    <vehicle id="v113" type="car" depart="154.00" departLane="best" departSpeed="0"><route edges="left0A0 A0B0 B0B1 B1B2 B2B3 B3C3 C3D3 D3right3"/></vehicle>
    <vehicle id="v114" type="car" depart="155.00" departLane="best" departSpeed="0"><route edges="left0A0 A0B0 B0bottom1"/></vehicle>
    <vehicle id="v115" type="car" depart="158.00" departLane="best" departSpeed="0"><route edges="bottom1B0 B0B1 B1B2 B2A2 A2left2"/></vehicle>
    <vehicle id="v116" type="car" depart="158.00" departLane="best" departSpeed="0"><route edges="left3A3 A3A2 A2A1 A1A0 A0bottom0"/></vehicle>
    <vehicle id="v117" type="car" depart="160.00" departLane="best" departSpeed="0"><route edges="left0A0 A0B0 B0C0 C0D0 D0D1 D1D2 D2D3 D3top3"/></vehicle>
    <vehicle id="v118" type="car" depart="163.00" departLane="best" departSpeed="0"><route edges="right1D1 D1C1 C1C0 C0bottom2"/></vehicle>
    <vehicle id="v119" type="car" depart="163.00" departLane="best" departSpeed="0"><route edges="top2C3 C3C2 C2D2 D2right2"/></vehicle>
    <vehicle id="v120" type="car" depart="164.00" departLane="best" departSpeed="0"><route edges="bottom1B0 B0C0 C0D0 D0bottom3"/></vehicle>
    <vehicle id="v121" type="car" depart="169.00" departLane="best" departSpeed="0"><route edges="bottom1B0 B0B1 B1A1 A1left1"/></vehicle>
    <vehicle id="v122" type="car" depart="169.00" departLane="best" departSpeed="0"><route edges="bottom3D0 D0D1 D1C1 C1B1 B1B2 B2B3 B3top1"/></vehicle>
    <vehicle id="v123" type="car" depart="169.00" departLane="best" departSpeed="0"><route edges="right0D0 D0C0 C0B0 B0A0 A0A1 A1A2 A2left2"/></vehicle>
    <vehicle id="v124" type="car" depart="170.00" departLane="best" departSpeed="0"><route edges="bottom3D0 D0D1 D1C1 C1B1 B1A1 A1A2 A2A3 A3top0"/></vehicle>
    <vehicle id="v125" type="car" depart="170.00" departLane="best" departSpeed="0"><route edges="left0A0 A0B0 B0bottom1"/></vehicle>
    <vehicle id="v126" type="car" depart="172.00" departLane="best" departSpeed="0"><route edges="bottom2C0 C0D0 D0D1 D1D2 D2D3 D3top3"/></vehicle>
    <vehicle id="v127" type="car" depart="172.00" departLane="best" departSpeed="0"><route edges="top1B3 B3B2 B2C2 C2C1 C1C0 C0bottom2"/></vehicle>
    <vehicle id="v128" type="car" depart="173.00" departLane="best" departSpeed="0"><route edges="right3D3 D3C3 C3B3 B3A3 A3left3"/></vehicle>
    <vehicle id="v129" type="car" depart="175.00" departLane="best" departSpeed="0"><route edges="bottom0A0 A0A1 A1A2 A2A3 A3left3"/></vehicle>
    <vehicle id="v130" type="car" depart="175.00" departLane="best" departSpeed="0"><route edges="left0A0 A0B0 B0C0 C0D0 D0right0"/></vehicle>
    <vehicle id="v131" type="car" depart="175.00" departLane="best" departSpeed="0"><route edges="top2C3 C3C2 C2C1 C1C0 C0B0 B0A0 A0left0"/></vehicle>
    <vehicle id="v132" type="car" depart="175.00" departLane="best" departSpeed="0"><route edges="top3D3 D3D2 D2D1 D1D0 D0right0"/></vehicle>
    <vehicle id="v133" type="car" depart="176.00" departLane="best" departSpeed="0"><route edges="left1A1 A1B1 B1B2 B2B3 B3C3 C3D3 D3right3"/></vehicle>
    <vehicle id="v134" type="car" depart="177.00" departLane="best" departSpeed="0"><route edges="top1B3 B3B2 B2B1 B1B0 B0A0 A0left0"/></vehicle>
    <vehicle id="v135" type="car" depart="178.00" departLane="best" departSpeed="0"><route edges="top3D3 D3D2 D2D1 D1D0 D0C0 C0B0 B0bottom1"/></vehicle>
    <vehicle id="v136" type="car" depart="180.00" departLane="best" departSpeed="0"><route edges="right2D2 D2D1 D1right1"/></vehicle>
    <vehicle id="v137" type="car" depart="180.00" departLane="best" departSpeed="0"><route edges="top3D3 D3D2 D2D1 D1D0 D0C0 C0B0 B0bottom1"/></vehicle>
    <vehicle id="v138" type="car" depart="185.00" departLane="best" departSpeed="0"><route edges="left3A3 A3A2 A2B2 B2C2 C2D2 D2right2"/></vehicle>
    <vehicle id="v139" type="car" depart="188.00" departLane="best" departSpeed="0"><route edges="right1D1 D1C1 C1C2 C2D2 D2D1 D1right1"/></vehicle>
    <vehicle id="v140" type="car" depart="189.00" departLane="best" departSpeed="0"><route edges="top0A3 A3A2 A2A1 A1A0 A0B0 B0C0 C0D0 D0right0"/></vehicle>
    <vehicle id="v141" type="car" depart="191.00" departLane="best" departSpeed="0"><route edges="left0A0 A0A1 A1B1 B1B0 B0A0 A0left0"/></vehicle>
    <vehicle id="v142" type="car" depart="191.00" departLane="best" departSpeed="0"><route edges="right0D0 D0C0 C0B0 B0bottom1"/></vehicle>
    <vehicle id="v143" type="car" depart="193.00" departLane="best" departSpeed="0"><route edges="left3A3 A3B3 B3B2 B2A2 A2A3 A3left3"/></vehicle>
    <vehicle id="v144" type="car" depart="193.00" departLane="best" departSpeed="0"><route edges="top2C3 C3B3 B3A3 A3left3"/></vehicle>
    <vehicle id="v145" type="car" depart="195.00" departLane="best" departSpeed="0"><route edges="left0A0 A0A1 A1left1"/></vehicle>
    <vehicle id="v146" type="car" depart="195.00" departLane="best" departSpeed="0"><route edges="left1A1 A1B1 B1C1 C1C2 C2C3 C3top2"/></vehicle>
    <vehicle id="v147" type="car" depart="196.00" departLane="best" departSpeed="0"><route edges="left0A0 A0B0 B0B1 B1C1 C1D1 D1right1"/></vehicle>
    <vehicle id="v148" type="car" depart="196.00" departLane="best" departSpeed="0"><route edges="left1A1 A1A0 A0left0"/></vehicle>
    <vehicle id="v149" type="car" depart="200.00" departLane="best" departSpeed="0"><route edges="top2C3 C3C2 C2C1 C1B1 B1A1 A1left1"/></vehicle>
    <vehicle id="v150" type="car" depart="201.00" departLane="best" departSpeed="0"><route edges="left1A1 A1B1 B1B0 B0bottom1"/></vehicle>
    <vehicle id="v151" type="car" depart="201.00" departLane="best" departSpeed="0"><route edges="left2A2 A2B2 B2C2 C2D2 D2right2"/></vehicle>
    <vehicle id="v152" type="car" depart="208.00" departLane="best" departSpeed="0"><route edges="left1A1 A1B1 B1C1 C1D1 D1D2 D2D3 D3top3"/></vehicle>
    <vehicle id="v153" type="car" depart="208.00" departLane="best" departSpeed="0"><route edges="left3A3 A3A2 A2A1 A1left1"/></vehicle>
    <vehicle id="v154" type="car" depart="208.00" departLane="best" departSpeed="0"><route edges="right3D3 D3C3 C3C2 C2C1 C1B1 B1A1 A1left1"/></vehicle>
    <vehicle id="v155" type="car" depart="210.00" departLane="best" departSpeed="0"><route edges="bottom2C0 C0C1 C1B1 B1A1 A1left1"/></vehicle>
    <vehicle id="v156" type="car" depart="213.00" departLane="best" departSpeed="0"><route edges="bottom0A0 A0B0 B0C0 C0D0 D0bottom3"/></vehicle>
    <vehicle id="v157" type="car" depart="214.00" departLane="best" departSpeed="0"><route edges="left1A1 A1A0 A0B0 B0C0 C0D0 D0right0"/></vehicle>
    <vehicle id="v158" type="car" depart="216.00" departLane="best" departSpeed="0"><route edges="bottom2C0 C0C1 C1D1 D1right1"/></vehicle>
    <vehicle id="v159" type="car" depart="216.00" departLane="best" departSpeed="0"><route edges="left2A2 A2B2 B2C2 C2D2 D2right2"/></vehicle>
    <vehicle id="v160" type="car" depart="216.00" departLane="best" departSpeed="0"><route edges="top2C3 C3C2 C2D2 D2right2"/></vehicle>
    <vehicle id="v161" type="car" depart="217.00" departLane="best" departSpeed="0"><route edges="bottom0A0 A0A1 A1A2 A2A3 A3top0"/></vehicle>
    <vehicle id="v162" type="car" depart="218.00" departLane="best" departSpeed="0"><route edges="bottom3D0 D0C0 C0B0 B0A0 A0bottom0"/></vehicle>
    <vehicle id="v163" type="car" depart="219.00" departLane="best" departSpeed="0"><route edges="bottom0A0 A0left0"/></vehicle>
    <vehicle id="v164" type="car" depart="219.00" departLane="best" departSpeed="0"><route edges="bottom3D0 D0D1 D1D2 D2D3 D3top3"/></vehicle>
    <vehicle id="v165" type="car" depart="221.00" departLane="best" departSpeed="0"><route edges="left0A0 A0bottom0"/></vehicle>
    <vehicle id="v166" type="car" depart="221.00" departLane="best" departSpeed="0"><route edges="top0A3 A3left3"/></vehicle>
    <vehicle id="v167" type="car" depart="221.00" departLane="best" departSpeed="0"><route edges="top1B3 B3A3 A3left3"/></vehicle>
    <vehicle id="v168" type="car" depart="223.00" departLane="best" departSpeed="0"><route edges="left0A0 A0B0 B0C0 C0bottom2"/></vehicle>
    <vehicle id="v169" type="car" depart="224.00" departLane="best" departSpeed="0"><route edges="bottom3D0 D0D1 D1C1 C1C2 C2C3 C3top2"/></vehicle>
    <vehicle id="v170" type="car" depart="226.00" departLane="best" departSpeed="0"><route edges="bottom0A0 A0B0 B0C0 C0D0 D0right0"/></vehicle>
    <vehicle id="v171" type="car" depart="227.00" departLane="best" departSpeed="0"><route edges="right2D2 D2C2 C2C3 C3top2"/></vehicle>
    <vehicle id="v172" type="car" depart="228.00" departLane="best" departSpeed="0"><route edges="left2A2 A2A3 A3top0"/></vehicle>
    <vehicle id="v173" type="car" depart="229.00" departLane="best" departSpeed="0"><route edges="right1D1 D1C1 C1B1 B1B2 B2B3 B3top1"/></vehicle>
    <vehicle id="v174" type="car" depart="235.00" departLane="best" departSpeed="0"><route edges="right0D0 D0D1 D1right1"/></vehicle>
    <vehicle id="v175" type="car" depart="235.00" departLane="best" departSpeed="0"><route edges="right1D1 D1C1 C1C2 C2C3 C3top2"/></vehicle>
    <vehicle id="v176" type="car" depart="237.00" departLane="best" departSpeed="0"><route edges="bottom2C0 C0C1 C1D1 D1D0 D0C0 C0bottom2"/></vehicle>
    <vehicle id="v177" type="car" depart="237.00" departLane="best" departSpeed="0"><route edges="right2D2 D2D3 D3top3"/></vehicle>
    <vehicle id="v178" type="car" depart="238.00" departLane="best" departSpeed="0"><route edges="left1A1 A1B1 B1B0 B0bottom1"/></vehicle>
    <vehicle id="v179" type="car" depart="240.00" departLane="best" departSpeed="0"><route edges="top2C3 C3B3 B3top1"/></vehicle>
    <vehicle id="v180" type="car" depart="241.00" departLane="best" departSpeed="0"><route edges="left3A3 A3B3 B3C3 C3D3 D3D2 D2D1 D1D0 D0bottom3"/></vehicle>
    <vehicle id="v181" type="car" depart="242.00" departLane="best" departSpeed="0"><route edges="top2C3 C3C2 C2C1 C1C0 C0D0 D0right0"/></vehicle>
    <vehicle id="v182" type="car" depart="243.00" departLane="best" departSpeed="0"><route edges="right1D1 D1D0 D0bottom3"/></vehicle>
    <vehicle id="v183" type="car" depart="243.00" departLane="best" departSpeed="0"><route edges="top1B3 B3B2 B2C2 C2C1 C1C0 C0bottom2"/></vehicle>
    <vehicle id="v184" type="car" depart="244.00" departLane="best" departSpeed="0"><route edges="right1D1 D1D2 D2D3 D3right3"/></vehicle>
    <vehicle id="v185" type="car" depart="245.00" departLane="best" departSpeed="0"><route edges="left0A0 A0A1 A1left1"/></vehicle>
    <vehicle id="v186" type="car" depart="245.00" departLane="best" departSpeed="0"><route edges="top1B3 B3B2 B2C2 C2D2 D2D1 D1D0 D0bottom3"/></vehicle>
    <vehicle id="v187" type="car" depart="247.00" departLane="best" departSpeed="0"><route edges="right0D0 D0C0 C0B0 B0A0 A0left0"/></vehicle>
    <vehicle id="v188" type="car" depart="247.00" departLane="best" departSpeed="0"><route edges="top3D3 D3D2 D2D1 D1D0 D0bottom3"/></vehicle>
    <vehicle id="v189" type="car" depart="249.00" departLane="best" departSpeed="0"><route edges="bottom2C0 C0B0 B0A0 A0bottom0"/></vehicle>
    <vehicle id="v190" type="car" depart="250.00" departLane="best" departSpeed="0"><route edges="right3D3 D3C3 C3B3 B3A3 A3A2 A2A1 A1A0 A0bottom0"/></vehicle>
    <vehicle id="v191" type="car" depart="250.00" departLane="best" departSpeed="0"><route edges="top2C3 C3C2 C2C1 C1C0 C0B0 B0A0 A0left0"/></vehicle>
    <vehicle id="v192" type="car" depart="251.00" departLane="best" departSpeed="0"><route edges="right0D0 D0C0 C0C1 C1C2 C2C3 C3top2"/></vehicle>
    <vehicle id="v193" type="car" depart="253.00" departLane="best" departSpeed="0"><route edges="left1A1 A1B1 B1B0 B0A0 A0A1 A1left1"/></vehicle>
    <vehicle id="v194" type="car" depart="254.00" departLane="best" departSpeed="0"><route edges="top3D3 D3D2 D2C2 C2B2 B2A2 A2left2"/></vehicle>
    <vehicle id="v195" type="car" depart="255.00" departLane="best" departSpeed="0"><route edges="right2D2 D2D1 D1D0 D0bottom3"/></vehicle>
    <vehicle id="v196" type="car" depart="256.00" departLane="best" departSpeed="0"><route edges="bottom3D0 D0D1 D1D2 D2D3 D3C3 C3B3 B3A3 A3left3"/></vehicle>
    <vehicle id="v197" type="car" depart="257.00" departLane="best" departSpeed="0"><route edges="left3A3 A3B3 B3B2 B2B1 B1B0 B0bottom1"/></vehicle>
    <vehicle id="v198" type="car" depart="260.00" departLane="best" departSpeed="0"><route edges="bottom1B0 B0B1 B1C1 C1C0 C0B0 B0bottom1"/></vehicle>
    <vehicle id="v199" type="car" depart="260.00" departLane="best" departSpeed="0"><route edges="top1B3 B3B2 B2B1 B1B0 B0bottom1"/></vehicle>
    <vehicle id="v200" type="car" depart="261.00" departLane="best" departSpeed="0"><route edges="top3D3 D3D2 D2right2"/></vehicle>
    <vehicle id="v201" type="car" depart="262.00" departLane="best" departSpeed="0"><route edges="right3D3 D3D2 D2right2"/></vehicle>
    <vehicle id="v202" type="car" depart="263.00" departLane="best" departSpeed="0"><route edges="top2C3 C3C2 C2C1 C1C0 C0B0 B0A0 A0bottom0"/></vehicle>
    <vehicle id="v203" type="car" depart="265.00" departLane="best" departSpeed="0"><route edges="right2D2 D2C2 C2B2 B2A2 A2left2"/></vehicle>
    <vehicle id="v204" type="car" depart="265.00" departLane="best" departSpeed="0"><route edges="top0A3 A3A2 A2B2 B2C2 C2D2 D2D1 D1D0 D0bottom3"/></vehicle>
    <vehicle id="v205" type="car" depart="265.00" departLane="best" departSpeed="0"><route edges="top3D3 D3D2 D2D1 D1D0 D0C0 C0B0 B0bottom1"/></vehicle>
    <vehicle id="v206" type="car" depart="269.00" departLane="best" departSpeed="0"><route edges="bottom2C0 C0C1 C1D1 D1D0 D0C0 C0bottom2"/></vehicle>