<?xml version="1.0" encoding="utf-8"?>
<routes>
    <vType id="car" length="5.0" width="2.0" minGap="2.5" maxSpeed="11.111" accel="2.0" decel="4.5" color="0.8,0.8,0.8"/>
    <vehicle id="v0" type="car" depart="5.00" departLane="best" departSpeed="0"><route edges="top1B3 B3B2 B2C2 C2D2 D2D1 D1D0 D0bottom3"/></vehicle>
    <vehicle id="v1" type="car" depart="20.00" departLane="best" departSpeed="0"><route edges="bottom2C0 C0C1 C1C2 C2C3 C3B3 B3A3 A3left3"/></vehicle>
    <vehicle id="v2" type="car" depart="28.00" departLane="best" departSpeed="0"><route edges="right1D1 D1C1 C1C2 C2D2 D2D1 D1right1"/></vehicle>
    <vehicle id="v3" type="car" depart="38.00" departLane="best" departSpeed="0"><route edges="top0A3 A3A2 A2A1 A1left1"/></vehicle>
    <vehicle id="v4" type="car" depart="51.00" departLane="best" departSpeed="0"><route edges="right2D2 D2C2 C2C1 C1B1 B1A1 A1left1"/></vehicle>
    <vehicle id="v5" type="car" depart="82.00" departLane="best" departSpeed="0"><route edges="top2C3 C3C2 C2C1 C1C0 C0bottom2"/></vehicle>
    <vehicle id="v6" type="car" depart="83.00" departLane="best" departSpeed="0"><route edges="left2A2 A2B2 B2B3 B3C3 C3D3 D3right3"/></vehicle>
    <vehicle id="v7" type="car" depart="84.00" departLane="best" departSpeed="0"><route edges="left3A3 A3B3 B3C3 C3D3 D3D2 D2D1 D1D0 D0bottom3"/></vehicle>
    <vehicle id="v8" type="car" depart="94.00" departLane="best" departSpeed="0"><route edges="right1D1 D1D2 D2D3 D3right3"/></vehicle>
    <vehicle id="v9" type="car" depart="96.00" departLane="best" departSpeed="0"><route edges="top0A3 A3A2 A2A1 A1B1 B1C1 C1D1 D1right1"/></vehicle>
    <vehicle id="v10" type="car" depart="127.00" departLane="best" departSpeed="0"><route edges="right1D1 D1C1 C1B1 B1B0 B0bottom1"/></vehicle>
    <vehicle id="v11" type="car" depart="130.00" departLane="best" departSpeed="0"><route edges="top0A3 A3A2 A2B2 B2C2 C2D2 D2right2"/></vehicle>
    <vehicle id="v12" type="car" depart="157.00" departLane="best" departSpeed="0"><route edges="top0A3 A3B3 B3C3 C3D3 D3right3"/></vehicle>
    <vehicle id="v13" type="car" depart="164.00" departLane="best" departSpeed="0"><route edges="right3D3 D3C3 C3B3 B3A3 A3A2 A2A1 A1A0 A0bottom0"/></vehicle>
    <vehicle id="v14" type="car" depart="171.00" departLane="best" departSpeed="0"><route edges="right1D1 D1C1 C1C0 C0bottom2"/></vehicle>
    <vehicle id="v15" type="car" depart="173.00" departLane="best" departSpeed="0"><route edges="bottom1B0 B0C0 C0D0 D0bottom3"/></vehicle>
    <vehicle id="v16" type="car" depart="186.00" departLane="best" departSpeed="0"><route edges="top3D3 D3D2 D2D1 D1D0 D0bottom3"/></vehicle>
    <vehicle id="v17" type="car" depart="197.00" departLane="best" departSpeed="0"><route edges="left0A0 A0A1 A1B1 B1B0 B0A0 A0left0"/></vehicle>
    <vehicle id="v18" type="car" depart="199.00" departLane="best" departSpeed="0"><route edges="left3A3 A3A2 A2A1 A1A0 A0left0"/></vehicle>
    <vehicle id="v19" type="car" depart="202.00" departLane="best" departSpeed="0"><route edges="bottom3D0 D0D1 D1D2 D2D3 D3right3"/></vehicle>
    <vehicle id="v20" type="car" depart="213.00" departLane="best" departSpeed="0"><route edges="right3D3 D3C3 C3C2 C2C1 C1B1 B1A1 A1left1"/></vehicle>
    <vehicle id="v21" type="car" depart="228.00" departLane="best" departSpeed="0"><route edges="top3D3 D3D2 D2C2 C2C3 C3D3 D3top3"/></vehicle>
    <vehicle id="v22" type="car" depart="234.00" departLane="best" departSpeed="0"><route edges="right1D1 D1C1 C1C0 C0B0 B0A0 A0left0"/></vehicle>
    <vehicle id="v23" type="car" depart="255.00" departLane="best" departSpeed="0"><route edges="left3A3 A3B3 B3B2 B2A2 A2A3 A3left3"/></vehicle>
    <vehicle id="v24" type="car" depart="261.00" departLane="best" departSpeed="0"><route edges="right0D0 D0C0 C0B0 B0A0 A0A1 A1A2 A2A3 A3top0"/></vehicle>
    <vehicle id="v25" type="car" depart="274.00" departLane="best" departSpeed="0"><route edges="left0A0 A0B0 B0C0 C0D0 D0bottom3"/></vehicle>
    <vehicle id="v26" type="car" depart="277.00" departLane="best" departSpeed="0"><route edges="left2A2 A2B2 B2B1 B1B0 B0bottom1"/></vehicle>
    <vehicle id="v27" type="car" depart="302.00" departLane="best" departSpeed="0"><route edges="left0A0 A0A1 A1A2 A2A3 A3top0"/></vehicle>
    <vehicle id="v28" type="car" depart="302.00" departLane="best" departSpeed="0"><route edges="left1A1 A1B1 B1B2 B2B3 B3C3 C3D3 D3right3"/></vehicle>
    <vehicle id="v29" type="car" depart="321.00" departLane="best" departSpeed="0"><route edges="bottom1B0 B0B1 B1B2 B2C2 C2D2 D2right2"/></vehicle>
    <vehicle id="v30" type="car" depart="329.00" departLane="best" departSpeed="0"><route edges="top0A3 A3A2 A2A1 A1A0 A0B0 B0C0 C0D0 D0right0"/></vehicle>
    <vehicle id="v31" type="car" depart="332.00" departLane="best" departSpeed="0"><route edges="left0A0 A0B0 B0C0 C0D0 D0D1 D1D2 D2D3 D3top3"/></vehicle>
    <vehicle id="v32" type="car" depart="337.00" departLane="best" departSpeed="0"><route edges="right2D2 D2C2 C2C3 C3top2"/></vehicle>
    <vehicle id="v33" type="car" depart="340.00" departLane="best" departSpeed="0"><route edges="top1B3 B3C3 C3D3 D3top3"/></vehicle>
    <vehicle id="v34" type="car" depart="353.00" departLane="best" departSpeed="0"><route edges="top1B3 B3B2 B2B1 B1A1 A1left1"/></vehicle>
    <vehicle id="v35" type="car" depart="361.00" departLane="best" departSpeed="0"><route edges="top0A3 A3A2 A2B2 B2C2 C2D2 D2right2"/></vehicle>
    <vehicle id="v36" type="car" depart="378.00" departLane="best" departSpeed="0"><route edges="right1D1 D1D2 D2C2 C2B2 B2A2 A2left2"/></vehicle>
    <vehicle id="v37" type="car" depart="390.00" departLane="best" departSpeed="0"><route edges="left1A1 A1B1 B1C1 C1D1 D1D2 D2D3 D3top3"/></vehicle>
    <vehicle id="v38" type="car" depart="429.00" departLane="best" departSpeed="0"><route edges="right1D1 D1C1 C1C0 C0bottom2"/></vehicle>
    <vehicle id="v39" type="car" depart="430.00" departLane="best" departSpeed="0"><route edges="right0D0 D0C0 C0B0 B0B1 B1B2 B2B3 B3top1"/></vehicle>
    <vehicle id="v40" type="car" depart="440.00" departLane="best" departSpeed="0"><route edges="left3A3 A3A2 A2B2 B2C2 C2D2 D2right2"/></vehicle>
    <vehicle id="v41" type="car" depart="448.00" departLane="best" departSpeed="0"><route edges="right1D1 D1D2 D2D3 D3right3"/></vehicle>
    <vehicle id="v42" type="car" depart="451.00" departLane="best" departSpeed="0"><route edges="left3A3 A3A2 A2A1 A1A0 A0left0"/></vehicle>
    <vehicle id="v43" type="car" depart="460.00" departLane="best" departSpeed="0"><route edges="left2A2 A2A3 A3top0"/></vehicle>
    <vehicle id="v44" type="car" depart="463.00" departLane="best" departSpeed="0"><route edges="left3A3 A3A2 A2A1 A1A0 A0bottom0"/></vehicle>
    <vehicle id="v45" type="car" depart="466.00" departLane="best" departSpeed="0"><route edges="left3A3 A3B3 B3C3 C3C2 C2C1 C1C0 C0bottom2"/></vehicle>
    <vehicle id="v46" type="car" depart="468.00" departLane="best" departSpeed="0"><route edges="left0A0 A0B0 B0C0 C0bottom2"/></vehicle>
    <vehicle id="v47" type="car" depart="469.00" departLane="best" departSpeed="0"><route edges="top2C3 C3D3 D3top3"/></vehicle>
    <vehicle id="v48" type="car" depart="472.00" departLane="best" departSpeed="0"><route edges="bottom2C0 C0C1 C1B1 B1B2 B2B3 B3top1"/></vehicle>
    <vehicle id="v49" type="car" depart="478.00" departLane="best" departSpeed="0"><route edges="top0A3 A3B3 B3C3 C3D3 D3top3"/></vehicle>
    <vehicle id="v50" type="car" depart="503.00" departLane="best" departSpeed="0"><route edges="top2C3 C3C2 C2B2 B2B3 B3C3 C3top2"/></vehicle>
    <vehicle id="v51" type="car" depart="512.00" departLane="best" departSpeed="0"><route edges="right0D0 D0D1 D1right1"/></vehicle>
    <vehicle id="v52" type="car" depart="568.00" departLane="best" departSpeed="0"><route edges="bottom3D0 D0D1 D1C1 C1B1 B1B2 B2B3 B3top1"/></vehicle>
    <vehicle id="v53" type="car" depart="572.00" departLane="best" departSpeed="0"><route edges="bottom2C0 C0C1 C1D1 D1D0 D0C0 C0bottom2"/></vehicle>
    <vehicle id="v54" type="car" depart="573.00" departLane="best" departSpeed="0"><route edges="right0D0 D0D1 D1D2 D2D3 D3right3"/></vehicle>
    <vehicle id="v55" type="car" depart="587.00" departLane="best" departSpeed="0"><route edges="bottom1B0 B0B1 B1B2 B2B3 B3C3 C3D3 D3top3"/></vehicle>
    <vehicle id="v56" type="car" depart="593.00" departLane="best" departSpeed="0"><route edges="top2C3 C3C2 C2B2 B2B3 B3C3 C3top2"/></vehicle>
    <vehicle id="v57" type="car" depart="609.00" departLane="best" departSpeed="0"><route edges="bottom0A0 A0B0 B0bottom1"/></vehicle>
    <vehicle id="v58" type="car" depart="616.00" departLane="best" departSpeed="0"><route edges="left1A1 A1B1 B1B2 B2C2 C2D2 D2right2"/></vehicle>
    <vehicle id="v59" type="car" depart="620.00" departLane="best" departSpeed="0"><route edges="right3D3 D3C3 C3B3 B3A3 A3A2 A2A1 A1A0 A0bottom0"/></vehicle>
    <vehicle id="v60" type="car" depart="626.00" departLane="best" departSpeed="0"><route edges="bottom3D0 D0C0 C0B0 B0A0 A0bottom0"/></vehicle>
    <vehicle id="v61" type="car" depart="659.00" departLane="best" departSpeed="0"><route edges="bottom0A0 A0A1 A1B1 B1B0 B0A0 A0bottom0"/></vehicle>
    <vehicle id="v62" type="car" depart="665.00" departLane="best" departSpeed="0"><route edges="right2D2 D2C2 C2C1 C1C0 C0bottom2"/></vehicle>
    <vehicle id="v63" type="car" depart="671.00" departLane="best" departSpeed="0"><route edges="left0A0 A0A1 A1A2 A2left2"/></vehicle>
    <vehicle id="v64" type="car" depart="671.00" departLane="best" departSpeed="0"><route edges="left3A3 A3B3 B3top1"/></vehicle>
    <vehicle id="v65" type="car" depart="676.00" departLane="best" departSpeed="0"><route edges="left3A3 A3A2 A2A1 A1A0 A0bottom0"/></vehicle>
    <vehicle id="v66" type="car" depart="685.00" departLane="best" departSpeed="0"><route edges="bottom3D0 D0D1 D1D2 D2D3 D3right3"/></vehicle>
    <vehicle id="v67" type="car" depart="715.00" departLane="best" departSpeed="0"><route edges="bottom2C0 C0C1 C1C2 C2C3 C3top2"/></vehicle>
    <vehicle id="v68" type="car" depart="716.00" departLane="best" departSpeed="0"><route edges="right0D0 D0D1 D1D2 D2right2"/></vehicle>
    <vehicle id="v69" type="car" depart="717.00" departLane="best" departSpeed="0"><route edges="right2D2 D2C2 C2B2 B2B1 B1B0 B0bottom1"/></vehicle>
    <vehicle id="v70" type="car" depart="718.00" departLane="best" departSpeed="0"><route edges="left2A2 A2B2 B2C2 C2C1 C1C0 C0bottom2"/></vehicle>
    <vehicle id="v71" type="car" depart="726.00" departLane="best" departSpeed="0"><route edges="bottom3D0 D0D1 D1D2 D2D3 D3right3"/></vehicle>
    <vehicle id="v72" type="car" depart="731.00" departLane="best" departSpeed="0"><route edges="bottom0A0 A0B0 B0C0 C0D0 D0bottom3"/></vehicle>
    <vehicle id="v73" type="car" depart="732.00" departLane="best" departSpeed="0"><route edges="top3D3 D3D2 D2D1 D1D0 D0C0 C0B0 B0A0 A0bottom0"/></vehicle>
    <vehicle id="v74" type="car" depart="738.00" departLane="best" departSpeed="0"><route edges="right0D0 D0C0 C0B0 B0B1 B1B2 B2B3 B3top1"/></vehicle>
    <vehicle id="v75" type="car" depart="742.00" departLane="best" departSpeed="0"><route edges="top0A3 A3A2 A2B2 B2B1 B1B0 B0bottom1"/></vehicle>
    <vehicle id="v76" type="car" depart="754.00" departLane="best" departSpeed="0"><route edges="left2A2 A2A1 A1left1"/></vehicle>
    <vehicle id="v77" type="car" depart="770.00" departLane="best" departSpeed="0"><route edges="left2A2 A2B2 B2C2 C2D2 D2D1 D1D0 D0bottom3"/></vehicle>
    <vehicle id="v78" type="car" depart="773.00" departLane="best" departSpeed="0"><route edges="right2D2 D2C2 C2C3 C3D3 D3D2 D2right2"/></vehicle>
    <vehicle id="v79" type="car" depart="787.00" departLane="best" departSpeed="0"><route edges="right0D0 D0C0 C0B0 B0A0 A0A1 A1A2 A2A3 A3left3"/></vehicle>
    <vehicle id="v80" type="car" depart="789.00" departLane="best" departSpeed="0"><route edges="right2D2 D2D1 D1right1"/></vehicle>
    <vehicle id="v81" type="car" depart="834.00" departLane="best" departSpeed="0"><route edges="left1A1 A1A0 A0bottom0"/></vehicle>
    <vehicle id="v82" type="car" depart="872.00" departLane="best" departSpeed="0"><route edges="left2A2 A2A1 A1A0 A0left0"/></vehicle>
    <vehicle id="v83" type="car" depart="878.00" departLane="best" departSpeed="0"><route edges="bottom1B0 B0B1 B1B2 B2B3 B3top1"/></vehicle>
    <vehicle id="v84" type="car" depart="883.00" departLane="best" departSpeed="0"><route edges="bottom0A0 A0A1 A1A2 A2B2 B2C2 C2D2 D2right2"/></vehicle>
    <vehicle id="v85" type="car" depart="883.00" departLane="best" departSpeed="0"><route edges="left2A2 A2B2 B2C2 C2C1 C1C0 C0bottom2"/></vehicle>
    <vehicle id="v86" type="car" depart="888.00" departLane="best" departSpeed="0"><route edges="bottom2C0 C0D0 D0bottom3"/></vehicle>
    <vehicle id="v87" type="car" depart="902.00" departLane="best" departSpeed="0"><route edges="left0A0 A0A1 A1A2 A2left2"/></vehicle>
    <vehicle id="v88" type="car" depart="917.00" departLane="best" departSpeed="0"><route edges="bottom2C0 C0C1 C1C2 C2C3 C3B3 B3A3 A3left3"/></vehicle>
    <vehicle id="v89" type="car" depart="922.00" departLane="best" departSpeed="0"><route edges="top1B3 B3B2 B2C2 C2D2 D2right2"/></vehicle>
    <vehicle id="v90" type="car" depart="945.00" departLane="best" departSpeed="0"><route edges="bottom0A0 A0left0"/></vehicle>
    <vehicle id="v91" type="car" depart="945.00" departLane="best" departSpeed="0"><route edges="bottom1B0 B0C0 C0C1 C1C2 C2C3 C3top2"/></vehicle>
    <vehicle id="v92" type="car" depart="945.00" departLane="best" departSpeed="0"><route edges="right2D2 D2C2 C2B2 B2A2 A2A3 A3top0"/></vehicle>
    <vehicle id="v93" type="car" depart="970.00" departLane="best" departSpeed="0"><route edges="left0A0 A0B0 B0bottom1"/></vehicle>
    <vehicle id="v94" type="car" depart="980.00" departLane="best" departSpeed="0"><route edges="top1B3 B3B2 B2A2 A2left2"/></vehicle>
    <vehicle id="v95" type="car" depart="991.00" departLane="best" departSpeed="0"><route edges="bottom2C0 C0C1 C1C2 C2B2 B2A2 A2left2"/></vehicle>
    <vehicle id="v96" type="car" depart="995.00" departLane="best" departSpeed="0"><route edges="left2A2 A2A1 A1A0 A0left0"/></vehicle>
    <vehicle id="v97" type="car" depart="1000.00" departLane="best" departSpeed="0"><route edges="right1D1 D1D0 D0bottom3"/></vehicle>
    <vehicle id="v98" type="car" depart="1001.00" departLane="best" departSpeed="0"><route edges="bottom1B0 B0A0 A0left0"/></vehicle>
    <vehicle id="v99" type="car" depart="1006.00" departLane="best" departSpeed="0"><route edges="right0D0 D0D1 D1C1 C1B1 B1A1 A1left1"/></vehicle>
    <vehicle id="v100" type="car" depart="1009.00" departLane="best" departSpeed="0"><route edges="right2D2 D2C2 C2C3 C3D3 D3D2 D2right2"/></vehicle>
    <vehicle id="v101" type="car" depart="1013.00" departLane="best" departSpeed="0"><route edges="right2D2 D2D1 D1right1"/></vehicle>
    <vehicle id="v102" type="car" depart="1022.00" departLane="best" departSpeed="0"><route edges="right3D3 D3C3 C3B3 B3A3 A3A2 A2A1 A1A0 A0bottom0"/></vehicle>
    <vehicle id="v103" type="car" depart="1051.00" departLane="best" departSpeed="0"><route edges="top2C3 C3D3 D3top3"/></vehicle>
    <vehicle id="v104" type="car" depart="1092.00" departLane="best" departSpeed="0"><route edges="top2C3 C3B3 B3B2 B2B1 B1B0 B0bottom1"/></vehicle>
    <vehicle id="v105" type="car" depart="1123.00" departLane="best" departSpeed="0"><route edges="top3D3 D3D2 D2right2"/></vehicle>
    <vehicle id="v106" type="car" depart="1125.00" departLane="best" departSpeed="0"><route edges="top1B3 B3C3 C3D3 D3right3"/></vehicle>
    <vehicle id="v107" type="car" depart="1127.00" departLane="best" departSpeed="0"><route edges="left1A1 A1B1 B1C1 C1D1 D1right1"/></vehicle>
    <vehicle id="v108" type="car" depart="1144.00" departLane="best" departSpeed="0"><route edges="top2C3 C3C2 C2C1 C1D1 D1right1"/></vehicle>
    <vehicle id="v109" type="car" depart="1161.00" departLane="best" departSpeed="0"><route edges="bottom0A0 A0A1 A1A2 A2A3 A3B3 B3C3 C3D3 D3top3"/></vehicle>
    <vehicle id="v110" type="car" depart="1163.00" departLane="best" departSpeed="0"><route edges="bottom0A0 A0A1 A1A2 A2B2 B2C2 C2D2 D2right2"/></vehicle>
    <vehicle id="v111" type="car" depart="1169.00" departLane="best" departSpeed="0"><route edges="top2C3 C3C2 C2B2 B2B3 B3C3 C3top2"/></vehicle>
    <vehicle id="v112" type="car" depart="1174.00" departLane="best" departSpeed="0"><route edges="left0A0 A0B0 B0C0 C0D0 D0right0"/></vehicle>
    <vehicle id="v113" type="car" depart="1194.00" departLane="best" departSpeed="0"><route edges="bottom2C0 C0B0 B0A0 A0bottom0"/></vehicle>
    <vehicle id="v114" type="car" depart="1238.00" departLane="best" departSpeed="0"><route edges="left3A3 A3A2 A2B2 B2C2 C2D2 D2right2"/></vehicle>
    <vehicle id="v115" type="car" depart="1254.00" departLane="best" departSpeed="0"><route edges="right3D3 D3D2 D2C2 C2C3 C3D3 D3right3"/></vehicle>
    <vehicle id="v116" type="car" depart="1277.00" departLane="best" departSpeed="0"><route edges="left1A1 A1B1 B1B2 B2B3 B3C3 C3D3 D3right3"/></vehicle>
    <vehicle id="v117" type="car" depart="1284.00" departLane="best" departSpeed="0"><route edges="bottom0A0 A0B0 B0B1 B1B2 B2B3 B3top1"/></vehicle>
    <vehicle id="v118" type="car" depart="1287.00" departLane="best" departSpeed="0"><route edges="top1B3 B3B2 B2A2 A2left2"/></vehicle>
    <vehicle id="v119" type="car" depart="1312.00" departLane="best" departSpeed="0"><route edges="right1D1 D1C1 C1C2 C2C3 C3top2"/></vehicle>
    <vehicle id="v120" type="car" depart="1321.00" departLane="best" departSpeed="0"><route edges="top3D3 D3C3 C3top2"/></vehicle>
    <vehicle id="v121" type="car" depart="1324.00" departLane="best" departSpeed="0"><route edges="top1B3 B3A3 A3left3"/></vehicle>
    <vehicle id="v122" type="car" depart="1329.00" departLane="best" departSpeed="0"><route edges="left1A1 A1A0 A0bottom0"/></vehicle>
    <vehicle id="v123" type="car" depart="1330.00" departLane="best" departSpeed="0"><route edges="right1D1 D1C1 C1B1 B1A1 A1A2 A2A3 A3left3"/></vehicle>
    <vehicle id="v124" type="car" depart="1335.00" departLane="best" departSpeed="0"><route edges="left2A2 A2A1 A1A0 A0left0"/></vehicle>
    <vehicle id="v125" type="car" depart="1340.00" departLane="best" departSpeed="0"><route edges="bottom2C0 C0C1 C1B1 B1A1 A1left1"/></vehicle>
    <vehicle id="v126" type="car" depart="1344.00" departLane="best" departSpeed="0"><route edges="right2D2 D2D3 D3top3"/></vehicle>
    <vehicle id="v127" type="car" depart="1350.00" departLane="best" departSpeed="0"><route edges="left3A3 A3B3 B3C3 C3D3 D3D2 D2D1 D1right1"/></vehicle>
    <vehicle id="v128" type="car" depart="1366.00" departLane="best" departSpeed="0"><route edges="right1D1 D1D2 D2D3 D3right3"/></vehicle>
    <vehicle id="v129" type="car" depart="1378.00" departLane="best" departSpeed="0"><route edges="left3A3 A3B3 B3B2 B2A2 A2A3 A3left3"/></vehicle>
    <vehicle id="v130" type="car" depart="1402.00" departLane="best" departSpeed="0"><route edges="right3D3 D3C3 C3C2 C2C1 C1B1 B1A1 A1left1"/></vehicle>
    <vehicle id="v131" type="car" depart="1410.00" departLane="best" departSpeed="0"><route edges="bottom3D0 D0C0 C0bottom2"/></vehicle>
    <vehicle id="v132" type="car" depart="1410.00" departLane="best" departSpeed="0"><route edges="left2A2 A2B2 B2B3 B3C3 C3D3 D3right3"/></vehicle>
    <vehicle id="v133" type="car" depart="1410.00" departLane="best" departSpeed="0"><route edges="top2C3 C3C2 C2C1 C1C0 C0B0 B0A0 A0left0"/></vehicle>
    <vehicle id="v134" type="car" depart="1416.00" departLane="best" departSpeed="0"><route edges="right2D2 D2C2 C2B2 B2A2 A2A1 A1A0 A0bottom0"/></vehicle>
    <vehicle id="v135" type="car" depart="1423.00" departLane="best" departSpeed="0"><route edges="top2C3 C3C2 C2C1 C1B1 B1A1 A1left1"/></vehicle>
    <vehicle id="v136" type="car" depart="1438.00" departLane="best" departSpeed="0"><route edges="bottom2C0 C0C1 C1C2 C2B2 B2A2 A2left2"/></vehicle>
    <vehicle id="v137" type="car" depart="1439.00" departLane="best" departSpeed="0"><route edges="right0D0 D0C0 C0B0 B0bottom1"/></vehicle>
    <vehicle id="v138" type="car" depart="1447.00" departLane="best" departSpeed="0"><route edges="right3D3 D3C3 C3B3 B3B2 B2B1 B1B0 B0bottom1"/></vehicle>
    <vehicle id="v139" type="car" depart="1449.00" departLane="best" departSpeed="0"><route edges="top1B3 B3C3 C3D3 D3top3"/></vehicle>
    <vehicle id="v140" type="car" depart="1450.00" departLane="best" departSpeed="0"><route edges="top2C3 C3B3 B3A3 A3top0"/></vehicle>
    <vehicle id="v141" type="car" depart="1455.00" departLane="best" departSpeed="0"><route edges="left0A0 A0B0 B0B1 B1B2 B2B3 B3C3 C3D3 D3right3"/></vehicle>
    <vehicle id="v142" type="car" depart="1461.00" departLane="best" departSpeed="0"><route edges="right1D1 D1D0 D0right0"/></vehicle>
    <vehicle id="v143" type="car" depart="1465.00" departLane="best" departSpeed="0"><route edges="bottom0A0 A0A1 A1left1"/></vehicle>
    <vehicle id="v144" type="car" depart="1489.00" departLane="best" departSpeed="0"><route edges="bottom0A0 A0A1 A1B1 B1C1 C1D1 D1right1"/></vehicle>
    <vehicle id="v145" type="car" depart="1516.00" departLane="best" departSpeed="0"><route edges="top2C3 C3B3 B3A3 A3left3"/></vehicle>
    <vehicle id="v146" type="car" depart="1526.00" departLane="best" departSpeed="0"><route edges="bottom1B0 B0C0 C0D0 D0bottom3"/></vehicle>
    <vehicle id="v147" type="car" depart="1538.00" departLane="best" departSpeed="0"><route edges="left2A2 A2A1 A1B1 B1C1 C1D1 D1right1"/></vehicle>
    <vehicle id="v148" type="car" depart="1565.00" departLane="best" departSpeed="0"><route edges="right2D2 D2C2 C2C3 C3D3 D3D2 D2right2"/></vehicle>
    <vehicle id="v149" type="car" depart="1573.00" departLane="best" departSpeed="0"><route edges="bottom2C0 C0D0 D0right0"/></vehicle>
    <vehicle id="v150" type="car" depart="1581.00" departLane="best" departSpeed="0"><route edges="bottom0A0 A0B0 B0C0 C0D0 D0bottom3"/></vehicle>
    <vehicle id="v151" type="car" depart="1582.00" departLane="best" departSpeed="0"><route edges="top3D3 D3D2 D2D1 D1D0 D0C0 C0B0 B0A0 A0bottom0"/></vehicle>
    <vehicle id="v152" type="car" depart="1599.00" departLane="best" departSpeed="0"><route edges="bottom3D0 D0D1 D1D2 D2C2 C2B2 B2A2 A2left2"/></vehicle>
    <vehicle id="v153" type="car" depart="1599.00" departLane="best" departSpeed="0"><route edges="top0A3 A3B3 B3top1"/></vehicle>
    <vehicle id="v154" type="car" depart="1602.00" departLane="best" departSpeed="0"><route edges="right3D3 D3D2 D2right2"/></vehicle>
    <vehicle id="v155" type="car" depart="1603.00" departLane="best" departSpeed="0"><route edges="bottom0A0 A0A1 A1A2 A2left2"/></vehicle>
    <vehicle id="v156" type="car" depart="1614.00" departLane="best" departSpeed="0"><route edges="right3D3 D3D2 D2D1 D1right1"/></vehicle>
    <vehicle id="v157" type="car" depart="1619.00" departLane="best" departSpeed="0"><route edges="left3A3 A3B3 B3C3 C3D3 D3D2 D2D1 D1right1"/></vehicle>
    <vehicle id="v158" type="car" depart="1619.00" departLane="best" departSpeed="0"><route edges="right3D3 D3C3 C3C2 C2C1 C1C0 C0B0 B0A0 A0left0"/></vehicle>
    <vehicle id="v159" type="car" depart="1621.00" departLane="best" departSpeed="0"><route edges="top2C3 C3D3 D3top3"/></vehicle>
    <vehicle id="v160" type="car" depart="1628.00" departLane="best" departSpeed="0"><route edges="top1B3 B3B2 B2A2 A2A3 A3B3 B3top1"/></vehicle>
    <vehicle id="v161" type="car" depart="1636.00" departLane="best" departSpeed="0"><route edges="right2D2 D2D3 D3top3"/></vehicle>
    <vehicle id="v162" type="car" depart="1654.00" departLane="best" departSpeed="0"><route edges="right2D2 D2D3 D3C3 C3B3 B3A3 A3left3"/></vehicle>
    <vehicle id="v163" type="car" depart="1661.00" departLane="best" departSpeed="0"><route edges="bottom1B0 B0B1 B1B2 B2C2 C2D2 D2right2"/></vehicle>
    <vehicle id="v164" type="car" depart="1670.00" departLane="best" departSpeed="0"><route edges="left2A2 A2B2 B2C2 C2C1 C1C0 C0bottom2"/></vehicle>
    <vehicle id="v165" type="car" depart="1680.00" departLane="best" departSpeed="0"><route edges="bottom1B0 B0B1 B1C1 C1D1 D1right1"/></vehicle>
    <vehicle id="v166" type="car" depart="1681.00" departLane="best" departSpeed="0"><route edges="top2C3 C3C2 C2C1 C1C0 C0bottom2"/></vehicle>
    <vehicle id="v167" type="car" depart="1690.00" departLane="best" departSpeed="0"><route edges="left3A3 A3B3 B3C3 C3C2 C2C1 C1C0 C0bottom2"/></vehicle>
    <vehicle id="v168" type="car" depart="1695.00" departLane="best" departSpeed="0"><route edges="bottom1B0 B0C0 C0D0 D0right0"/></vehicle>
    <vehicle id="v169" type="car" depart="1702.00" departLane="best" departSpeed="0"><route edges="right3D3 D3C3 C3top2"/></vehicle>
    <vehicle id="v170" type="car" depart="1719.00" departLane="best" departSpeed="0"><route edges="top1B3 B3C3 C3top2"/></vehicle>
    <vehicle id="v171" type="car" depart="1737.00" departLane="best" departSpeed="0"><route edges="bottom3D0 D0C0 C0C1 C1D1 D1D0 D0bottom3"/></vehicle>
    <vehicle id="v172" type="car" depart="1740.00" departLane="best" departSpeed="0"><route edges="bottom2C0 C0B0 B0A0 A0bottom0"/></vehicle>
    <vehicle id="v173" type="car" depart="1750.00" departLane="best" departSpeed="0"><route edges="top3D3 D3right3"/></vehicle>
    <vehicle id="v174" type="car" depart="1754.00" departLane="best" departSpeed="0"><route edges="bottom0A0 A0A1 A1A2 A2A3 A3B3 B3C3 C3D3 D3top3"/></vehicle>
    <vehicle id="v175" type="car" depart="1756.00" departLane="best" departSpeed="0"><route edges="bottom3D0 D0C0 C0bottom2"/></vehicle>
    <vehicle id="v176" type="car" depart="1766.00" departLane="best" departSpeed="0"><route edges="left2A2 A2B2 B2C2 C2C1 C1C0 C0bottom2"/></vehicle>
    <vehicle id="v177" type="car" depart="1766.00" departLane="best" departSpeed="0"><route edges="top2C3 C3C2 C2C1 C1C0 C0B0 B0A0 A0left0"/></vehicle>
    <vehicle id="v178" type="car" depart="1769.00" departLane="best" departSpeed="0"><route edges="top2C3 C3C2 C2C1 C1C0 C0B0 B0A0 A0bottom0"/></vehicle>
    <vehicle id="v179" type="car" depart="1798.00" departLane="best" departSpeed="0"><route edges="right1D1 D1C1 C1B1 B1A1 A1A0 A0bottom0"/></vehicle>
    <vehicle id="v180" type="car" depart="1801.00" departLane="best" departSpeed="0"><route edges="top3D3 D3C3 C3C2 C2C1 C1C0 C0bottom2"/></vehicle>
    <vehicle id="v181" type="car" depart="1813.00" departLane="best" departSpeed="0"><route edges="right0D0 D0C0 C0B0 B0A0 A0A1 A1A2 A2A3 A3top0"/></vehicle>
    <vehicle id="v182" type="car" depart="1823.00" departLane="best" departSpeed="0"><route edges="bottom3D0 D0D1 D1D2 D2C2 C2B2 B2A2 A2left2"/></vehicle>
    <vehicle id="v183" type="car" depart="1824.00" departLane="best" departSpeed="0"><route edges="bottom0A0 A0B0 B0C0 C0D0 D0bottom3"/></vehicle>
    <vehicle id="v184" type="car" depart="1826.00" departLane="best" departSpeed="0"><route edges="right1D1 D1C1 C1B1 B1A1 A1A0 A0bottom0"/></vehicle>
    <vehicle id="v185" type="car" depart="1829.00" departLane="best" departSpeed="0"><route edges="left1A1 A1B1 B1B0 B0A0 A0A1 A1left1"/></vehicle>
    <vehicle id="v186" type="car" depart="1829.00" departLane="best" departSpeed="0"><route edges="right3D3 D3C3 C3C2 C2C1 C1B1 B1A1 A1left1"/></vehicle>
    <vehicle id="v187" type="car" depart="1839.00" departLane="best" departSpeed="0"><route edges="left0A0 A0bottom0"/></vehicle>
    <vehicle id="v188" type="car" depart="1857.00" departLane="best" departSpeed="0"><route edges="top2C3 C3B3 B3top1"/></vehicle>
    <vehicle id="v189" type="car" depart="1869.00" departLane="best" departSpeed="0"><route edges="left3A3 A3B3 B3B2 B2B1 B1B0 B0bottom1"/></vehicle>
    <vehicle id="v190" type="car" depart="1875.00" departLane="best" departSpeed="0"><route edges="bottom2C0 C0B0 B0A0 A0bottom0"/></vehicle>
    <vehicle id="v191" type="car" depart="1881.00" departLane="best" departSpeed="0"><route edges="bottom2C0 C0C1 C1B1 B1A1 A1A2 A2A3 A3top0"/></vehicle>
    <vehicle id="v192" type="car" depart="1881.00" departLane="best" departSpeed="0"><route edges="right2D2 D2C2 C2B2 B2A2 A2A1 A1A0 A0bottom0"/></vehicle>
    <vehicle id="v193" type="car" depart="1909.00" departLane="best" departSpeed="0"><route edges="left3A3 A3B3 B3C3 C3D3 D3D2 D2D1 D1D0 D0right0"/></vehicle>
    <vehicle id="v194" type="car" depart="1916.00" departLane="best" departSpeed="0"><route edges="left0A0 A0B0 B0C0 C0D0 D0D1 D1D2 D2D3 D3top3"/></vehicle>
    <vehicle id="v195" type="car" depart="1921.00" departLane="best" departSpeed="0"><route edges="left2A2 A2B2 B2B3 B3C3 C3D3 D3right3"/></vehicle>
    <vehicle id="v196" type="car" depart="1921.00" departLane="best" departSpeed="0"><route edges="top2C3 C3C2 C2D2 D2D1 D1D0 D0bottom3"/></vehicle>
    <vehicle id="v197" type="car" depart="1925.00" departLane="best" departSpeed="0"><route edges="top2C3 C3C2 C2D2 D2D1 D1D0 D0bottom3"/></vehicle>
    <vehicle id="v198" type="car" depart="1930.00" departLane="best" departSpeed="0"><route edges="left1A1 A1A0 A0bottom0"/></vehicle>
    <vehicle id="v199" type="car" depart="1937.00" departLane="best" departSpeed="0"><route edges="right0D0 D0C0 C0B0 B0A0 A0left0"/></vehicle>
    <vehicle id="v200" type="car" depart="1940.00" departLane="best" departSpeed="0"><route edges="left0A0 A0B0 B0C0 C0D0 D0right0"/></vehicle>
    <vehicle id="v201" type="car" depart="1944.00" departLane="best" departSpeed="0"><route edges="top0A3 A3B3 B3B2 B2A2 A2A3 A3top0"/></vehicle>
    <vehicle id="v202" type="car" depart="1971.00" departLane="best" departSpeed="0"><route edges="top2C3 C3C2 C2C1 C1B1 B1A1 A1left1"/></vehicle>
    <vehicle id="v203" type="car" depart="1974.00" departLane="best" departSpeed="0"><route edges="left0A0 A0A1 A1left1"/></vehicle>